
 OpenBabel03132514253D

 65 64  0  0  0  0  0  0  0  0999 V2000
    1.0349   -0.0321   -0.0880 C   0  0  0  0  0  0  0  0  0  0  0  0
    0.5283    0.3210   -1.4769 C   0  0  0  0  0  0  0  0  0  0  0  0
    1.0349   -0.7053   -2.4771 C   0  0  0  0  0  0  0  0  0  0  0  0
    0.5283   -2.0846   -2.0885 C   0  0  0  0  0  0  0  0  0  0  0  0
   -0.9917   -2.0846   -2.0885 C   0  0  0  0  0  0  0  0  0  0  0  0
   -1.4984   -1.7315   -3.4774 C   0  0  0  0  0  0  0  0  0  0  0  0
   -2.2805   -2.6108   -4.1600 C   0  0  0  0  0  0  0  0  0  0  0  0
   -2.7872   -2.2577   -5.5489 C   0  0  0  0  0  0  0  0  0  0  0  0
   -2.2805   -3.2839   -6.5491 C   0  0  0  0  0  0  0  0  0  0  0  0
   -3.1646   -4.0244   -7.2708 C   0  0  0  0  0  0  0  0  0  0  0  0
   -2.6579   -5.0507   -8.2711 C   0  0  0  0  0  0  0  0  0  0  0  0
   -3.1646   -6.4300   -7.8824 C   0  0  0  0  0  0  0  0  0  0  0  0
   -3.9467   -7.1350   -8.7438 C   0  0  0  0  0  0  0  0  0  0  0  0
   -4.4534   -8.5144   -8.3552 C   0  0  0  0  0  0  0  0  0  0  0  0
   -5.9734   -8.5144   -8.3552 C   0  0  0  0  0  0  0  0  0  0  0  0
   -6.6536   -9.3581   -9.1775 C   0  0  0  0  0  0  0  0  0  0  0  0
   -8.1736   -9.3581   -9.1775 C   0  0  0  0  0  0  0  0  0  0  0  0
   -8.6802   -9.0049  -10.5664 C   0  0  0  0  0  0  0  0  0  0  0  0
   -8.1736  -10.0312  -11.5666 C   0  0  0  0  0  0  0  0  0  0  0  0
   -8.6802  -11.4106  -11.1780 C   0  0  0  0  0  0  0  0  0  0  0  0
   -9.4109  -12.0692  -11.9827 O   0  0  0  0  0  0  0  0  0  0  0  0
   -8.3372  -11.9633   -9.9158 O   0  0  0  0  0  0  0  0  0  0  0  0
   -8.8105  -13.2520   -9.5527 C   0  0  0  0  0  0  0  0  0  0  0  0
  -10.3305  -13.2520   -9.5527 C   0  0  0  0  0  0  0  0  0  0  0  0
  -10.8039  -12.9221  -10.8502 O   0  0  0  0  0  0  0  0  0  0  0  0
   -8.3039  -14.2782  -10.5529 C   0  0  0  0  0  0  0  0  0  0  0  0
   -6.8839  -14.2782  -10.5529 O   0  0  0  0  0  0  0  0  0  0  0  0
    0.6783   -1.0031    0.1856 H   0  0  0  0  0  0  0  0  0  0  0  0
    0.6783    0.6903    0.6161 H   0  0  0  0  0  0  0  0  0  0  0  0
    2.1049   -0.0321   -0.0880 H   0  0  0  0  0  0  0  0  0  0  0  0
   -0.5417    0.3210   -1.4769 H   0  0  0  0  0  0  0  0  0  0  0  0
    0.8849    1.2920   -1.7505 H   0  0  0  0  0  0  0  0  0  0  0  0
    0.6783   -0.4567   -3.4548 H   0  0  0  0  0  0  0  0  0  0  0  0
    2.1049   -0.7053   -2.4771 H   0  0  0  0  0  0  0  0  0  0  0  0
    0.8849   -2.8071   -2.7926 H   0  0  0  0  0  0  0  0  0  0  0  0
    0.8849   -2.3332   -1.1108 H   0  0  0  0  0  0  0  0  0  0  0  0
   -1.3484   -3.0556   -1.8149 H   0  0  0  0  0  0  0  0  0  0  0  0
   -1.3484   -1.3622   -1.3844 H   0  0  0  0  0  0  0  0  0  0  0  0
   -1.2399   -0.7915   -3.9182 H   0  0  0  0  0  0  0  0  0  0  0  0
   -2.5390   -3.5509   -3.7192 H   0  0  0  0  0  0  0  0  0  0  0  0
   -3.8572   -2.2577   -5.5489 H   0  0  0  0  0  0  0  0  0  0  0  0
   -2.4305   -1.2867   -5.8225 H   0  0  0  0  0  0  0  0  0  0  0  0
   -1.2285   -3.4239   -6.6856 H   0  0  0  0  0  0  0  0  0  0  0  0
   -4.2165   -3.8844   -7.1344 H   0  0  0  0  0  0  0  0  0  0  0  0
   -3.0146   -4.8021   -9.2488 H   0  0  0  0  0  0  0  0  0  0  0  0
   -1.5879   -5.0507   -8.2711 H   0  0  0  0  0  0  0  0  0  0  0  0
   -2.9061   -6.8465   -6.9313 H   0  0  0  0  0  0  0  0  0  0  0  0
   -4.2052   -6.7185   -9.6949 H   0  0  0  0  0  0  0  0  0  0  0  0
   -4.0967   -9.2368   -9.0593 H   0  0  0  0  0  0  0  0  0  0  0  0
   -4.0967   -8.7629   -7.3775 H   0  0  0  0  0  0  0  0  0  0  0  0
   -6.5084   -7.8508   -7.7084 H   0  0  0  0  0  0  0  0  0  0  0  0
   -6.1186  -10.0216   -9.8243 H   0  0  0  0  0  0  0  0  0  0  0  0
   -8.5302  -10.3290   -8.9039 H   0  0  0  0  0  0  0  0  0  0  0  0
   -8.5302   -8.6356   -8.4734 H   0  0  0  0  0  0  0  0  0  0  0  0
   -9.7502   -9.0049  -10.5664 H   0  0  0  0  0  0  0  0  0  0  0  0
   -8.3236   -8.0340  -10.8400 H   0  0  0  0  0  0  0  0  0  0  0  0
   -8.5302   -9.7826  -12.5443 H   0  0  0  0  0  0  0  0  0  0  0  0
   -7.1036  -10.0312  -11.5666 H   0  0  0  0  0  0  0  0  0  0  0  0
   -8.4539  -13.5005   -8.5750 H   0  0  0  0  0  0  0  0  0  0  0  0
  -10.6872  -14.2229   -9.2791 H   0  0  0  0  0  0  0  0  0  0  0  0
  -10.6872  -12.5295   -8.8486 H   0  0  0  0  0  0  0  0  0  0  0  0
  -10.4705  -12.0146  -11.1059 H   0  0  0  0  0  0  0  0  0  0  0  0
   -8.6605  -15.2492  -10.2793 H   0  0  0  0  0  0  0  0  0  0  0  0
   -8.6605  -14.0296  -11.5306 H   0  0  0  0  0  0  0  0  0  0  0  0
   -6.5505  -13.3707  -10.8086 H   0  0  0  0  0  0  0  0  0  0  0  0
  1  2  1  0  0  0  0
  1 28  1  0  0  0  0
  1 29  1  0  0  0  0
  1 30  1  0  0  0  0
  2  3  1  0  0  0  0
  2 31  1  0  0  0  0
  2 32  1  0  0  0  0
  3  4  1  0  0  0  0
  3 33  1  0  0  0  0
  3 34  1  0  0  0  0
  4  5  1  0  0  0  0
  4 35  1  0  0  0  0
  4 36  1  0  0  0  0
  5  6  1  0  0  0  0
  5 37  1  0  0  0  0
  5 38  1  0  0  0  0
  6  7  2  0  0  0  0
  6 39  1  0  0  0  0
  7  8  1  0  0  0  0
  7 40  1  0  0  0  0
  8  9  1  0  0  0  0
  8 41  1  0  0  0  0
  8 42  1  0  0  0  0
  9 10  2  0  0  0  0
  9 43  1  0  0  0  0
 10 11  1  0  0  0  0
 10 44  1  0  0  0  0
 11 12  1  0  0  0  0
 11 45  1  0  0  0  0
 11 46  1  0  0  0  0
 12 13  2  0  0  0  0
 12 47  1  0  0  0  0
 13 14  1  0  0  0  0
 13 48  1  0  0  0  0
 14 15  1  0  0  0  0
 14 49  1  0  0  0  0
 14 50  1  0  0  0  0
 15 16  2  0  0  0  0
 15 51  1  0  0  0  0
 16 17  1  0  0  0  0
 16 52  1  0  0  0  0
 17 18  1  0  0  0  0
 17 53  1  0  0  0  0
 17 54  1  0  0  0  0
 18 19  1  0  0  0  0
 18 55  1  0  0  0  0
 18 56  1  0  0  0  0
 19 20  1  0  0  0  0
 19 57  1  0  0  0  0
 19 58  1  0  0  0  0
 20 21  2  0  0  0  0
 20 22  1  0  0  0  0
 22 23  1  0  0  0  0
 23 24  1  0  0  0  0
 23 26  1  0  0  0  0
 23 59  1  0  0  0  0
 24 25  1  0  0  0  0
 24 60  1  0  0  0  0
 24 61  1  0  0  0  0
 25 62  1  0  0  0  0
 26 27  1  0  0  0  0
 26 63  1  0  0  0  0
 26 64  1  0  0  0  0
 27 65  1  0  0  0  0
M  END
