
 OpenBabel03132512093D

 66 66  0  0  0  0  0  0  0  0999 V2000
    0.9340    0.0185    0.0729 C   0  0  0  0  0  0  0  0  0  0  0  0
    0.4607    0.0258   -1.2659 O   0  0  0  0  0  0  0  0  0  0  0  0
    0.8037    1.0956   -2.1344 C   0  0  0  0  0  0  0  0  0  0  0  0
   -0.1347    1.5217   -3.0303 C   0  0  0  0  0  0  0  0  0  0  0  0
   -1.4658    1.0322   -2.9605 O   0  0  0  0  0  0  0  0  0  0  0  0
   -1.8261    0.0955   -1.9559 C   0  0  0  0  0  0  0  0  0  0  0  0
    0.2184    2.4229   -3.9941 C   0  0  0  0  0  0  0  0  0  0  0  0
   -0.5350    3.5707   -3.6317 O   0  0  0  0  0  0  0  0  0  0  0  0
    1.4675    2.9089   -4.0732 C   0  0  0  0  0  0  0  0  0  0  0  0
    1.2667    4.3702   -3.7065 C   0  0  0  0  0  0  0  0  0  0  0  0
    2.5894    5.1093   -3.8274 C   0  0  0  0  0  0  0  0  0  0  0  0
    2.7079    6.1553   -4.6891 C   0  0  0  0  0  0  0  0  0  0  0  0
    4.0306    6.8944   -4.8099 C   0  0  0  0  0  0  0  0  0  0  0  0
    1.5175    6.5849   -5.5310 C   0  0  0  0  0  0  0  0  0  0  0  0
    1.0785    5.4289   -6.4149 C   0  0  0  0  0  0  0  0  0  0  0  0
    0.6832    4.2472   -5.5444 C   0  0  0  0  0  0  0  0  0  0  0  0
   -0.5806    3.7478   -5.6085 C   0  0  0  0  0  0  0  0  0  0  0  0
   -0.9758    2.5661   -4.7379 C   0  0  0  0  0  0  0  0  0  0  0  0
   -1.5974    4.3715   -6.5506 C   0  0  0  0  0  0  0  0  0  0  0  0
   -1.7982    5.8329   -6.1839 C   0  0  0  0  0  0  0  0  0  0  0  0
   -0.4755    6.5719   -6.3048 C   0  0  0  0  0  0  0  0  0  0  0  0
   -0.3570    7.6179   -7.1665 C   0  0  0  0  0  0  0  0  0  0  0  0
    0.9657    8.3570   -7.2873 C   0  0  0  0  0  0  0  0  0  0  0  0
   -1.5473    8.0475   -8.0084 C   0  0  0  0  0  0  0  0  0  0  0  0
    2.4322    2.5316   -3.2164 C   0  0  0  0  0  0  0  0  0  0  0  0
    3.4105    1.7833   -4.1071 C   0  0  0  0  0  0  0  0  0  0  0  0
    2.1651    1.6398   -2.2387 C   0  0  0  0  0  0  0  0  0  0  0  0
    3.0721    1.2784   -1.4251 O   0  0  0  0  0  0  0  0  0  0  0  0
    0.5774   -0.8579    0.5725 H   0  0  0  0  0  0  0  0  0  0  0  0
    0.5774    0.8893    0.5820 H   0  0  0  0  0  0  0  0  0  0  0  0
    2.0040    0.0185    0.0729 H   0  0  0  0  0  0  0  0  0  0  0  0
   -1.2312   -0.7876   -2.0619 H   0  0  0  0  0  0  0  0  0  0  0  0
   -1.6578    0.5252   -0.9906 H   0  0  0  0  0  0  0  0  0  0  0  0
   -2.8608   -0.1571   -2.0584 H   0  0  0  0  0  0  0  0  0  0  0  0
    0.0160    1.9545   -4.9347 H   0  0  0  0  0  0  0  0  0  0  0  0
   -0.2368    3.8953   -2.7341 H   0  0  0  0  0  0  0  0  0  0  0  0
    1.8233    2.6640   -5.0522 H   0  0  0  0  0  0  0  0  0  0  0  0
    0.5509    4.8093   -4.3697 H   0  0  0  0  0  0  0  0  0  0  0  0
    0.9100    4.4397   -2.7001 H   0  0  0  0  0  0  0  0  0  0  0  0
    3.4273    4.8069   -3.2347 H   0  0  0  0  0  0  0  0  0  0  0  0
    4.3873    6.8250   -5.8163 H   0  0  0  0  0  0  0  0  0  0  0  0
    3.8892    7.9231   -4.5518 H   0  0  0  0  0  0  0  0  0  0  0  0
    4.7463    6.4554   -4.1467 H   0  0  0  0  0  0  0  0  0  0  0  0
    0.7104    6.8693   -4.8887 H   0  0  0  0  0  0  0  0  0  0  0  0
    1.7958    7.4168   -6.1438 H   0  0  0  0  0  0  0  0  0  0  0  0
    0.2406    5.7313   -7.0076 H   0  0  0  0  0  0  0  0  0  0  0  0
    1.8856    5.1445   -7.0572 H   0  0  0  0  0  0  0  0  0  0  0  0
    1.3990    3.8082   -4.8812 H   0  0  0  0  0  0  0  0  0  0  0  0
   -1.7830    2.8505   -4.0956 H   0  0  0  0  0  0  0  0  0  0  0  0
   -1.2849    1.7524   -5.3602 H   0  0  0  0  0  0  0  0  0  0  0  0
   -0.1379    2.2637   -4.1453 H   0  0  0  0  0  0  0  0  0  0  0  0
   -1.2406    4.3020   -7.5570 H   0  0  0  0  0  0  0  0  0  0  0  0
   -2.5285    3.8512   -6.4655 H   0  0  0  0  0  0  0  0  0  0  0  0
   -2.5139    6.2719   -6.8471 H   0  0  0  0  0  0  0  0  0  0  0  0
   -2.1549    5.9023   -5.1775 H   0  0  0  0  0  0  0  0  0  0  0  0
    0.3625    6.2695   -5.7121 H   0  0  0  0  0  0  0  0  0  0  0  0
    1.3224    8.2876   -8.2937 H   0  0  0  0  0  0  0  0  0  0  0  0
    0.8243    9.3857   -7.0292 H   0  0  0  0  0  0  0  0  0  0  0  0
    1.6815    7.9180   -6.6241 H   0  0  0  0  0  0  0  0  0  0  0  0
   -1.8564    7.2338   -8.6306 H   0  0  0  0  0  0  0  0  0  0  0  0
   -2.3545    8.3319   -7.3661 H   0  0  0  0  0  0  0  0  0  0  0  0
   -1.2691    8.8794   -8.6212 H   0  0  0  0  0  0  0  0  0  0  0  0
    2.7802    3.4212   -2.7343 H   0  0  0  0  0  0  0  0  0  0  0  0
    3.7336    2.4250   -4.9000 H   0  0  0  0  0  0  0  0  0  0  0  0
    4.2570    1.4770   -3.5287 H   0  0  0  0  0  0  0  0  0  0  0  0
    2.9296    0.9210   -4.5195 H   0  0  0  0  0  0  0  0  0  0  0  0
  1  2  1  0  0  0  0
  1 29  1  0  0  0  0
  1 30  1  0  0  0  0
  1 31  1  0  0  0  0
  2  3  1  0  0  0  0
  3  4  2  0  0  0  0
  3 27  1  0  0  0  0
  4  5  1  0  0  0  0
  4  7  1  0  0  0  0
  5  6  1  0  0  0  0
  6 32  1  0  0  0  0
  6 33  1  0  0  0  0
  6 34  1  0  0  0  0
  7  8  1  0  0  0  0
  7  9  1  0  0  0  0
  7 35  1  0  0  0  0
  8 36  1  0  0  0  0
  9 10  1  0  0  0  0
  9 25  1  0  0  0  0
  9 37  1  0  0  0  0
 10 11  1  0  0  0  0
 10 38  1  0  0  0  0
 10 39  1  0  0  0  0
 11 12  2  0  0  0  0
 11 40  1  0  0  0  0
 12 13  1  0  0  0  0
 12 14  1  0  0  0  0
 13 41  1  0  0  0  0
 13 42  1  0  0  0  0
 13 43  1  0  0  0  0
 14 15  1  0  0  0  0
 14 44  1  0  0  0  0
 14 45  1  0  0  0  0
 15 16  1  0  0  0  0
 15 46  1  0  0  0  0
 15 47  1  0  0  0  0
 16 17  2  0  0  0  0
 16 48  1  0  0  0  0
 17 18  1  0  0  0  0
 17 19  1  0  0  0  0
 18 49  1  0  0  0  0
 18 50  1  0  0  0  0
 18 51  1  0  0  0  0
 19 20  1  0  0  0  0
 19 52  1  0  0  0  0
 19 53  1  0  0  0  0
 20 21  1  0  0  0  0
 20 54  1  0  0  0  0
 20 55  1  0  0  0  0
 21 22  2  0  0  0  0
 21 56  1  0  0  0  0
 22 23  1  0  0  0  0
 22 24  1  0  0  0  0
 23 57  1  0  0  0  0
 23 58  1  0  0  0  0
 23 59  1  0  0  0  0
 24 60  1  0  0  0  0
 24 61  1  0  0  0  0
 24 62  1  0  0  0  0
 25 26  1  0  0  0  0
 25 27  1  0  0  0  0
 25 63  1  0  0  0  0
 26 64  1  0  0  0  0
 26 65  1  0  0  0  0
 26 66  1  0  0  0  0
 27 28  2  0  0  0  0
M  END
