
 OpenBabel03132512093D

 22 21  0  0  0  0  0  0  0  0999 V2000
    0.9378    0.0759   -0.0190 O   0  0  0  0  0  0  0  0  0  0  0  0
    2.2087    0.0759   -0.0190 C   0  0  0  0  0  0  0  0  0  0  0  0
    2.9187    0.7118    1.0336 O   0  0  0  0  0  0  0  0  0  0  0  0
    2.9687   -0.6047   -1.1458 C   0  0  0  0  0  0  0  0  0  0  0  0
    2.6015   -2.0791   -1.1863 C   0  0  0  0  0  0  0  0  0  0  0  0
    1.2054   -2.2133   -1.4085 O   0  0  0  0  0  0  0  0  0  0  0  0
    3.3615   -2.7597   -2.3131 C   0  0  0  0  0  0  0  0  0  0  0  0
    4.1558   -3.7178   -2.0558 O   0  0  0  0  0  0  0  0  0  0  0  0
    3.1840   -2.3250   -3.6532 O   0  0  0  0  0  0  0  0  0  0  0  0
    2.9687   -2.7293    0.1376 C   0  0  0  0  0  0  0  0  0  0  0  0
    4.3648   -2.5951    0.3597 O   0  0  0  0  0  0  0  0  0  0  0  0
    2.2087   -2.0487    1.2643 C   0  0  0  0  0  0  0  0  0  0  0  0
    1.4144   -2.7223    1.9927 O   0  0  0  0  0  0  0  0  0  0  0  0
    2.3862   -0.6602    1.5032 O   0  0  0  0  0  0  0  0  0  0  0  0
    3.9187    0.7118    1.0336 H   0  0  0  0  0  0  0  0  0  0  0  0
    2.7102   -0.1470   -2.0778 H   0  0  0  0  0  0  0  0  0  0  0  0
    4.0207   -0.5036   -0.9784 H   0  0  0  0  0  0  0  0  0  0  0  0
    0.7054   -1.7655   -0.6672 H   0  0  0  0  0  0  0  0  0  0  0  0
    3.6840   -2.7728   -4.3945 H   0  0  0  0  0  0  0  0  0  0  0  0
    2.7102   -3.7672    0.1090 H   0  0  0  0  0  0  0  0  0  0  0  0
    4.8648   -3.0429   -0.3816 H   0  0  0  0  0  0  0  0  0  0  0  0
    1.8862   -0.2124    2.2444 H   0  0  0  0  0  0  0  0  0  0  0  0
  1  2  2  0  0  0  0
  2  3  1  0  0  0  0
  2  4  1  0  0  0  0
  3 15  1  0  0  0  0
  4  5  1  0  0  0  0
  4 16  1  0  0  0  0
  4 17  1  0  0  0  0
  5  6  1  0  0  0  0
  5  7  1  0  0  0  0
  5 10  1  0  0  0  0
  6 18  1  0  0  0  0
  7  8  2  0  0  0  0
  7  9  1  0  0  0  0
  9 19  1  0  0  0  0
 10 11  1  0  0  0  0
 10 12  1  0  0  0  0
 10 20  1  0  0  0  0
 11 21  1  0  0  0  0
 12 13  2  0  0  0  0
 12 14  1  0  0  0  0
 14 22  1  0  0  0  0
M  END
