
 OpenBabel03132512093D

 23 22  0  0  0  0  0  0  0  0999 V2000
    1.0740   -0.0266   -0.0618 O   0  0  0  0  0  0  0  0  0  0  0  0
    2.3449   -0.0266   -0.0618 C   0  0  0  0  0  0  0  0  0  0  0  0
    3.1049    0.5519   -1.2442 C   0  0  0  0  0  0  0  0  0  0  0  0
    3.9788    1.7021   -0.7711 C   0  0  0  0  0  0  0  0  0  0  0  0
    4.9015    1.2278    0.1984 O   0  0  0  0  0  0  0  0  0  0  0  0
    4.7388    2.2806   -1.9535 C   0  0  0  0  0  0  0  0  0  0  0  0
    3.8160    2.7550   -2.9230 O   0  0  0  0  0  0  0  0  0  0  0  0
    5.6126    3.4308   -1.4804 C   0  0  0  0  0  0  0  0  0  0  0  0
    6.5354    2.9565   -0.5109 O   0  0  0  0  0  0  0  0  0  0  0  0
    6.3726    4.0094   -2.6628 C   0  0  0  0  0  0  0  0  0  0  0  0
    5.4499    4.4837   -3.6323 O   0  0  0  0  0  0  0  0  0  0  0  0
    2.8799   -0.4338    0.7706 H   0  0  0  0  0  0  0  0  0  0  0  0
    3.7201   -0.2079   -1.6791 H   0  0  0  0  0  0  0  0  0  0  0  0
    2.4096    0.9094   -1.9747 H   0  0  0  0  0  0  0  0  0  0  0  0
    3.3636    2.4620   -0.3362 H   0  0  0  0  0  0  0  0  0  0  0  0
    4.4015    0.8472    0.9763 H   0  0  0  0  0  0  0  0  0  0  0  0
    5.3539    1.5208   -2.3884 H   0  0  0  0  0  0  0  0  0  0  0  0
    3.2411    1.9983   -3.2342 H   0  0  0  0  0  0  0  0  0  0  0  0
    4.9975    4.1907   -1.0455 H   0  0  0  0  0  0  0  0  0  0  0  0
    6.0354    2.5759    0.2670 H   0  0  0  0  0  0  0  0  0  0  0  0
    6.9878    4.8190   -2.3298 H   0  0  0  0  0  0  0  0  0  0  0  0
    6.9878    3.2495   -3.0977 H   0  0  0  0  0  0  0  0  0  0  0  0
    4.8750    3.7270   -3.9436 H   0  0  0  0  0  0  0  0  0  0  0  0
  1  2  2  0  0  0  0
  2  3  1  0  0  0  0
  2 12  1  0  0  0  0
  3  4  1  0  0  0  0
  3 13  1  0  0  0  0
  3 14  1  0  0  0  0
  4  5  1  0  0  0  0
  4  6  1  0  0  0  0
  4 15  1  0  0  0  0
  5 16  1  0  0  0  0
  6  7  1  0  0  0  0
  6  8  1  0  0  0  0
  6 17  1  0  0  0  0
  7 18  1  0  0  0  0
  8  9  1  0  0  0  0
  8 10  1  0  0  0  0
  8 19  1  0  0  0  0
  9 20  1  0  0  0  0
 10 11  1  0  0  0  0
 10 21  1  0  0  0  0
 10 22  1  0  0  0  0
 11 23  1  0  0  0  0
M  END
