
 OpenBabel03132512083D

 39 39  0  0  0  0  0  0  0  0999 V2000
    1.0357    0.0933   -0.0040 C   0  0  0  0  0  0  0  0  0  0  0  0
    0.5290    1.4762    0.3720 C   0  0  0  0  0  0  0  0  0  0  0  0
   -0.3449    2.2550   -0.5976 C   0  0  0  0  0  0  0  0  0  0  0  0
   -0.7983    3.4927   -0.2611 C   0  0  0  0  0  0  0  0  0  0  0  0
   -1.6722    4.2715   -1.2307 C   0  0  0  0  0  0  0  0  0  0  0  0
   -1.4276    4.0862   -2.6172 O   0  0  0  0  0  0  0  0  0  0  0  0
   -3.0299    3.7739   -0.9674 C   0  0  0  0  0  0  0  0  0  0  0  0
   -3.3665    2.3013   -1.1362 C   0  0  0  0  0  0  0  0  0  0  0  0
   -3.9814    4.6680   -0.5671 C   0  0  0  0  0  0  0  0  0  0  0  0
   -3.6499    5.9866   -0.4359 C   0  0  0  0  0  0  0  0  0  0  0  0
   -4.5398    6.8187   -0.0742 O   0  0  0  0  0  0  0  0  0  0  0  0
   -2.4037    6.4222   -0.6810 C   0  0  0  0  0  0  0  0  0  0  0  0
   -1.4239    5.5889   -1.0720 C   0  0  0  0  0  0  0  0  0  0  0  0
   -1.1197    6.0548   -2.4865 C   0  0  0  0  0  0  0  0  0  0  0  0
   -0.3155    5.7028   -0.0382 C   0  0  0  0  0  0  0  0  0  0  0  0
    0.8577    2.0168    1.5763 C   0  0  0  0  0  0  0  0  0  0  0  0
    1.7315    1.2379    2.5459 C   0  0  0  0  0  0  0  0  0  0  0  0
    2.0386    1.7430    3.6710 O   0  0  0  0  0  0  0  0  0  0  0  0
    2.2049   -0.0539    2.1947 O   0  0  0  0  0  0  0  0  0  0  0  0
    0.6790   -0.1642   -0.9794 H   0  0  0  0  0  0  0  0  0  0  0  0
    0.6790   -0.6226    0.7067 H   0  0  0  0  0  0  0  0  0  0  0  0
    2.1057    0.0933   -0.0040 H   0  0  0  0  0  0  0  0  0  0  0  0
   -0.6033    1.8298   -1.5449 H   0  0  0  0  0  0  0  0  0  0  0  0
   -0.5398    3.9179    0.6862 H   0  0  0  0  0  0  0  0  0  0  0  0
   -2.0630    4.6490   -3.1459 H   0  0  0  0  0  0  0  0  0  0  0  0
   -3.7066    1.9038   -0.2028 H   0  0  0  0  0  0  0  0  0  0  0  0
   -4.1364    2.1934   -1.8714 H   0  0  0  0  0  0  0  0  0  0  0  0
   -2.4935    1.7700   -1.4532 H   0  0  0  0  0  0  0  0  0  0  0  0
   -4.9777    4.3386   -0.3582 H   0  0  0  0  0  0  0  0  0  0  0  0
   -2.0727    6.7186    0.2924 H   0  0  0  0  0  0  0  0  0  0  0  0
   -2.4905    7.1637   -1.4475 H   0  0  0  0  0  0  0  0  0  0  0  0
   -0.8546    7.0914   -2.4713 H   0  0  0  0  0  0  0  0  0  0  0  0
   -0.3058    5.4843   -2.8827 H   0  0  0  0  0  0  0  0  0  0  0  0
   -1.9845    5.9168   -3.1012 H   0  0  0  0  0  0  0  0  0  0  0  0
   -0.6393    5.2629    0.8819 H   0  0  0  0  0  0  0  0  0  0  0  0
    0.5554    5.1911   -0.3911 H   0  0  0  0  0  0  0  0  0  0  0  0
   -0.0823    6.7347    0.1225 H   0  0  0  0  0  0  0  0  0  0  0  0
    0.5010    2.9902    1.8410 H   0  0  0  0  0  0  0  0  0  0  0  0
    2.7798   -0.5663    2.8326 H   0  0  0  0  0  0  0  0  0  0  0  0
  1  2  1  0  0  0  0
  1 20  1  0  0  0  0
  1 21  1  0  0  0  0
  1 22  1  0  0  0  0
  2  3  1  0  0  0  0
  2 16  2  0  0  0  0
  3  4  2  0  0  0  0
  3 23  1  0  0  0  0
  4  5  1  0  0  0  0
  4 24  1  0  0  0  0
  5  6  1  0  0  0  0
  5  7  1  0  0  0  0
  5 13  1  0  0  0  0
  6 25  1  0  0  0  0
  7  8  1  0  0  0  0
  7  9  2  0  0  0  0
  8 26  1  0  0  0  0
  8 27  1  0  0  0  0
  8 28  1  0  0  0  0
  9 10  1  0  0  0  0
  9 29  1  0  0  0  0
 10 11  2  0  0  0  0
 10 12  1  0  0  0  0
 12 13  1  0  0  0  0
 12 30  1  0  0  0  0
 12 31  1  0  0  0  0
 13 14  1  0  0  0  0
 13 15  1  0  0  0  0
 14 32  1  0  0  0  0
 14 33  1  0  0  0  0
 14 34  1  0  0  0  0
 15 35  1  0  0  0  0
 15 36  1  0  0  0  0
 15 37  1  0  0  0  0
 16 17  1  0  0  0  0
 16 38  1  0  0  0  0
 17 18  2  0  0  0  0
 17 19  1  0  0  0  0
 19 39  1  0  0  0  0
M  END
