
 OpenBabel03132512093D

 85 88  0  0  0  0  0  0  0  0999 V2000
    0.9737   -0.0950    0.0167 C   0  0  0  0  0  0  0  0  0  0  0  0
    0.4670   -1.5278   -0.0121 C   0  0  0  0  0  0  0  0  0  0  0  0
    0.9737   -2.2691    1.2143 C   0  0  0  0  0  0  0  0  0  0  0  0
    0.4670   -1.5777    2.4695 C   0  0  0  0  0  0  0  0  0  0  0  0
   -0.9530   -1.5777    2.4695 O   0  0  0  0  0  0  0  0  0  0  0  0
    0.9737   -2.3191    3.6960 C   0  0  0  0  0  0  0  0  0  0  0  0
    2.3937   -2.3191    3.6960 O   0  0  0  0  0  0  0  0  0  0  0  0
    0.4670   -1.6276    4.9512 C   0  0  0  0  0  0  0  0  0  0  0  0
   -1.0530   -1.6276    4.9512 C   0  0  0  0  0  0  0  0  0  0  0  0
    0.9737   -2.3690    6.1776 C   0  0  0  0  0  0  0  0  0  0  0  0
    0.9404   -0.2891    4.9781 O   0  0  0  0  0  0  0  0  0  0  0  0
   -1.0530   -1.5278   -0.0121 C   0  0  0  0  0  0  0  0  0  0  0  0
   -1.7073   -0.4504    0.3421 C   0  0  0  0  0  0  0  0  0  0  0  0
   -0.9539    0.7892    0.7520 C   0  0  0  0  0  0  0  0  0  0  0  0
   -1.5923    1.3802    2.0108 C   0  0  0  0  0  0  0  0  0  0  0  0
   -2.9856    1.1058    2.0083 O   0  0  0  0  0  0  0  0  0  0  0  0
   -0.9512    0.7531    3.2507 C   0  0  0  0  0  0  0  0  0  0  0  0
   -1.5866   -0.5867    3.5208 C   0  0  0  0  0  0  0  0  0  0  0  0
   -1.5551   -1.2685    2.1626 C   0  0  0  0  0  0  0  0  0  0  0  0
   -2.9503   -0.3104    4.1324 C   0  0  0  0  0  0  0  0  0  0  0  0
   -2.7774    0.4749    5.4224 C   0  0  0  0  0  0  0  0  0  0  0  0
   -2.0795    1.7918    5.1241 C   0  0  0  0  0  0  0  0  0  0  0  0
   -0.9190    1.7930    4.6060 O   0  0  0  0  0  0  0  0  0  0  0  0
    0.3867   -1.7742    3.7176 C   0  0  0  0  0  0  0  0  0  0  0  0
    1.1974   -0.4918    3.6238 C   0  0  0  0  0  0  0  0  0  0  0  0
    1.1206   -2.7745    4.5957 C   0  0  0  0  0  0  0  0  0  0  0  0
   -0.9737   -1.4704    4.3237 C   0  0  0  0  0  0  0  0  0  0  0  0
   -1.6475   -2.7373    4.5450 C   0  0  0  0  0  0  0  0  0  0  0  0
   -0.7758   -3.8786    4.0160 C   0  0  0  0  0  0  0  0  0  0  0  0
   -1.2773   -4.2795    2.6830 C   0  0  0  0  0  0  0  0  0  0  0  0
   -1.9263   -5.6414    2.4979 C   0  0  0  0  0  0  0  0  0  0  0  0
   -0.7028   -3.6422    1.6211 C   0  0  0  0  0  0  0  0  0  0  0  0
    0.6371   -3.8974    2.2919 C   0  0  0  0  0  0  0  0  0  0  0  0
   -1.1603   -3.9930    0.2294 C   0  0  0  0  0  0  0  0  0  0  0  0
   -1.8063   -2.7681   -0.4199 C   0  0  0  0  0  0  0  0  0  0  0  0
    0.6170    0.3917    0.9003 H   0  0  0  0  0  0  0  0  0  0  0  0
    0.6170    0.4268   -0.8466 H   0  0  0  0  0  0  0  0  0  0  0  0
    2.0437   -0.0950    0.0167 H   0  0  0  0  0  0  0  0  0  0  0  0
    0.8237   -2.0145   -0.8957 H   0  0  0  0  0  0  0  0  0  0  0  0
    0.6170   -3.2777    1.1940 H   0  0  0  0  0  0  0  0  0  0  0  0
    2.0437   -2.2691    1.2143 H   0  0  0  0  0  0  0  0  0  0  0  0
    0.8237   -0.5691    2.4898 H   0  0  0  0  0  0  0  0  0  0  0  0
   -1.2863   -1.0900    1.6627 H   0  0  0  0  0  0  0  0  0  0  0  0
    0.6170   -3.3277    3.6757 H   0  0  0  0  0  0  0  0  0  0  0  0
    2.7270   -2.7740    2.8702 H   0  0  0  0  0  0  0  0  0  0  0  0
   -1.4097   -2.6362    4.9309 H   0  0  0  0  0  0  0  0  0  0  0  0
   -1.4096   -1.1409    5.8348 H   0  0  0  0  0  0  0  0  0  0  0  0
   -1.4096   -1.1057    4.0879 H   0  0  0  0  0  0  0  0  0  0  0  0
    2.0437   -2.3690    6.1776 H   0  0  0  0  0  0  0  0  0  0  0  0
    0.6170   -1.8822    7.0612 H   0  0  0  0  0  0  0  0  0  0  0  0
    0.6170   -3.3776    6.1573 H   0  0  0  0  0  0  0  0  0  0  0  0
    0.6070    0.1658    5.8039 H   0  0  0  0  0  0  0  0  0  0  0  0
   -0.9925    1.5085   -0.0393 H   0  0  0  0  0  0  0  0  0  0  0  0
    0.0660    0.5364    0.9542 H   0  0  0  0  0  0  0  0  0  0  0  0
   -1.4373    2.4388    2.0260 H   0  0  0  0  0  0  0  0  0  0  0  0
   -3.1304    0.1164    1.9942 H   0  0  0  0  0  0  0  0  0  0  0  0
   -0.4363    1.5902    3.6736 H   0  0  0  0  0  0  0  0  0  0  0  0
   -2.0342   -2.2228    2.2313 H   0  0  0  0  0  0  0  0  0  0  0  0
   -2.0696   -0.6618    1.4470 H   0  0  0  0  0  0  0  0  0  0  0  0
   -0.5393   -1.4008    1.8534 H   0  0  0  0  0  0  0  0  0  0  0  0
   -3.5409    0.2585    3.4450 H   0  0  0  0  0  0  0  0  0  0  0  0
   -3.4416   -1.2375    4.3424 H   0  0  0  0  0  0  0  0  0  0  0  0
   -3.7374    0.6694    5.8529 H   0  0  0  0  0  0  0  0  0  0  0  0
   -2.1868   -0.0941    6.1098 H   0  0  0  0  0  0  0  0  0  0  0  0
    1.3270   -0.0794    4.6026 H   0  0  0  0  0  0  0  0  0  0  0  0
    2.1550   -0.7057    3.1971 H   0  0  0  0  0  0  0  0  0  0  0  0
    0.6807    0.2123    3.0056 H   0  0  0  0  0  0  0  0  0  0  0  0
    1.2503   -2.3621    5.5745 H   0  0  0  0  0  0  0  0  0  0  0  0
    0.5500   -3.6772    4.6618 H   0  0  0  0  0  0  0  0  0  0  0  0
    2.0783   -2.9883    4.1691 H   0  0  0  0  0  0  0  0  0  0  0  0
   -0.9445   -0.9996    5.2841 H   0  0  0  0  0  0  0  0  0  0  0  0
   -1.8156   -2.8734    5.5929 H   0  0  0  0  0  0  0  0  0  0  0  0
   -2.5855   -2.7370    4.0301 H   0  0  0  0  0  0  0  0  0  0  0  0
    0.2416   -3.5559    3.9411 H   0  0  0  0  0  0  0  0  0  0  0  0
   -0.8277   -4.7115    4.6857 H   0  0  0  0  0  0  0  0  0  0  0  0
   -1.2252   -6.4083    2.7537 H   0  0  0  0  0  0  0  0  0  0  0  0
   -2.7846   -5.7167    3.1323 H   0  0  0  0  0  0  0  0  0  0  0  0
   -2.2258   -5.7581    1.4773 H   0  0  0  0  0  0  0  0  0  0  0  0
    0.6504   -3.4264    3.2526 H   0  0  0  0  0  0  0  0  0  0  0  0
    0.7824   -4.9509    2.4092 H   0  0  0  0  0  0  0  0  0  0  0  0
    1.4217   -3.4943    1.6862 H   0  0  0  0  0  0  0  0  0  0  0  0
   -1.8745   -4.7883    0.2790 H   0  0  0  0  0  0  0  0  0  0  0  0
   -0.3193   -4.3042   -0.3544 H   0  0  0  0  0  0  0  0  0  0  0  0
   -2.8240   -2.6891   -0.0990 H   0  0  0  0  0  0  0  0  0  0  0  0
   -1.7751   -2.8705   -1.4845 H   0  0  0  0  0  0  0  0  0  0  0  0
  1  2  1  0  0  0  0
  1 36  1  0  0  0  0
  1 37  1  0  0  0  0
  1 38  1  0  0  0  0
  2  3  1  0  0  0  0
  2 12  1  0  0  0  0
  2 39  1  0  0  0  0
  3  4  1  0  0  0  0
  3 40  1  0  0  0  0
  3 41  1  0  0  0  0
  4  5  1  0  0  0  0
  4  6  1  0  0  0  0
  4 42  1  0  0  0  0
  5 43  1  0  0  0  0
  6  7  1  0  0  0  0
  6  8  1  0  0  0  0
  6 44  1  0  0  0  0
  7 45  1  0  0  0  0
  8  9  1  0  0  0  0
  8 10  1  0  0  0  0
  8 11  1  0  0  0  0
  9 46  1  0  0  0  0
  9 47  1  0  0  0  0
  9 48  1  0  0  0  0
 10 49  1  0  0  0  0
 10 50  1  0  0  0  0
 10 51  1  0  0  0  0
 11 52  1  0  0  0  0
 12 13  2  0  0  0  0
 12 35  1  0  0  0  0
 13 14  1  0  0  0  0
 13 32  1  0  0  0  0
 14 15  1  0  0  0  0
 14 53  1  0  0  0  0
 14 54  1  0  0  0  0
 15 16  1  0  0  0  0
 15 17  1  0  0  0  0
 15 55  1  0  0  0  0
 16 56  1  0  0  0  0
 17 18  1  0  0  0  0
 17 30  1  0  0  0  0
 17 57  1  0  0  0  0
 18 19  1  0  0  0  0
 18 20  1  0  0  0  0
 18 27  1  0  0  0  0
 19 58  1  0  0  0  0
 19 59  1  0  0  0  0
 19 60  1  0  0  0  0
 20 21  1  0  0  0  0
 20 61  1  0  0  0  0
 20 62  1  0  0  0  0
 21 22  1  0  0  0  0
 21 63  1  0  0  0  0
 21 64  1  0  0  0  0
 22 23  2  0  0  0  0
 22 24  1  0  0  0  0
 24 25  1  0  0  0  0
 24 26  1  0  0  0  0
 24 27  1  0  0  0  0
 25 65  1  0  0  0  0
 25 66  1  0  0  0  0
 25 67  1  0  0  0  0
 26 68  1  0  0  0  0
 26 69  1  0  0  0  0
 26 70  1  0  0  0  0
 27 28  1  0  0  0  0
 27 71  1  0  0  0  0
 28 29  1  0  0  0  0
 28 72  1  0  0  0  0
 28 73  1  0  0  0  0
 29 30  1  0  0  0  0
 29 74  1  0  0  0  0
 29 75  1  0  0  0  0
 30 31  1  0  0  0  0
 30 32  1  0  0  0  0
 31 76  1  0  0  0  0
 31 77  1  0  0  0  0
 31 78  1  0  0  0  0
 32 33  1  0  0  0  0
 32 34  1  0  0  0  0
 33 79  1  0  0  0  0
 33 80  1  0  0  0  0
 33 81  1  0  0  0  0
 34 35  1  0  0  0  0
 34 82  1  0  0  0  0
 34 83  1  0  0  0  0
 35 84  1  0  0  0  0
 35 85  1  0  0  0  0
M  END
