
 OpenBabel03132514253D

 72 76  0  0  0  0  0  0  0  0999 V2000
    0.9110   -0.0065   -0.0451 C   0  0  0  0  0  0  0  0  0  0  0  0
    0.2308    0.9430   -0.7425 C   0  0  0  0  0  0  0  0  0  0  0  0
   -1.2892    0.9430   -0.7425 C   0  0  0  0  0  0  0  0  0  0  0  0
   -1.7143   -0.4979   -0.7271 C   0  0  0  0  0  0  0  0  0  0  0  0
   -1.6626   -0.9935    0.6026 O   0  0  0  0  0  0  0  0  0  0  0  0
   -2.5358   -0.2337    1.4252 C   0  0  0  0  0  0  0  0  0  0  0  0
   -2.2304    1.2658    1.4016 O   0  0  0  0  0  0  0  0  0  0  0  0
   -2.2153    1.7271    0.0490 C   0  0  0  0  0  0  0  0  0  0  0  0
   -1.1895    0.8837   -0.6905 C   0  0  0  0  0  0  0  0  0  0  0  0
   -1.1074    1.3147   -2.0410 O   0  0  0  0  0  0  0  0  0  0  0  0
   -3.4573    1.5614   -0.6375 C   0  0  0  0  0  0  0  0  0  0  0  0
   -3.3412    2.0733   -1.9569 O   0  0  0  0  0  0  0  0  0  0  0  0
   -3.8123    0.0738   -0.6964 C   0  0  0  0  0  0  0  0  0  0  0  0
   -2.8229   -0.6245   -1.4380 O   0  0  0  0  0  0  0  0  0  0  0  0
   -3.8775   -0.4841    0.7288 C   0  0  0  0  0  0  0  0  0  0  0  0
   -4.1426   -1.8785    0.6862 O   0  0  0  0  0  0  0  0  0  0  0  0
   -3.2437   -2.7519    0.0188 C   0  0  0  0  0  0  0  0  0  0  0  0
   -2.2019   -2.2857   -0.5403 O   0  0  0  0  0  0  0  0  0  0  0  0
   -3.5274   -4.2445   -0.0269 C   0  0  0  0  0  0  0  0  0  0  0  0
   -4.7916   -4.6953   -0.3210 C   0  0  0  0  0  0  0  0  0  0  0  0
   -5.8062   -3.7940   -0.6273 O   0  0  0  0  0  0  0  0  0  0  0  0
   -5.0963   -6.0445   -0.3477 C   0  0  0  0  0  0  0  0  0  0  0  0
   -4.0719   -6.9491   -0.0893 C   0  0  0  0  0  0  0  0  0  0  0  0
   -4.3377   -8.3025   -0.0892 O   0  0  0  0  0  0  0  0  0  0  0  0
   -2.8011   -6.5290    0.1858 C   0  0  0  0  0  0  0  0  0  0  0  0
   -2.5045   -5.1624    0.2306 C   0  0  0  0  0  0  0  0  0  0  0  0
   -1.0979   -4.6849    0.5528 C   0  0  0  0  0  0  0  0  0  0  0  0
   -0.8742   -3.8860    1.6478 C   0  0  0  0  0  0  0  0  0  0  0  0
    0.3979   -3.4399    1.9314 C   0  0  0  0  0  0  0  0  0  0  0  0
    1.4836   -3.7962    1.1246 C   0  0  0  0  0  0  0  0  0  0  0  0
    1.2300   -4.6412    0.0245 C   0  0  0  0  0  0  0  0  0  0  0  0
    2.2216   -5.0564   -0.7960 O   0  0  0  0  0  0  0  0  0  0  0  0
   -0.0481   -5.0557   -0.2652 C   0  0  0  0  0  0  0  0  0  0  0  0
   -3.1435   -0.6117   -1.2594 O   0  0  0  0  0  0  0  0  0  0  0  0
   -3.2448    0.1708   -2.5432 C   0  0  0  0  0  0  0  0  0  0  0  0
   -2.5232    1.3115   -2.7178 C   0  0  0  0  0  0  0  0  0  0  0  0
   -2.7069    2.2134   -4.2272 C   0  0  0  0  0  0  0  0  0  0  0  0
   -2.8688    1.8144   -5.4229 O   0  0  0  0  0  0  0  0  0  0  0  0
   -2.5918    3.8882   -3.5348 O   0  0  0  0  0  0  0  0  0  0  0  0
   -1.3077    3.9836   -2.8329 C   0  0  0  0  0  0  0  0  0  0  0  0
   -1.1757    3.1442   -1.6709 C   0  0  0  0  0  0  0  0  0  0  0  0
   -1.6734    1.7815   -1.7391 C   0  0  0  0  0  0  0  0  0  0  0  0
    0.3760   -0.7534    0.5034 H   0  0  0  0  0  0  0  0  0  0  0  0
    1.9810   -0.0065   -0.0451 H   0  0  0  0  0  0  0  0  0  0  0  0
    0.7658    1.6899   -1.2910 H   0  0  0  0  0  0  0  0  0  0  0  0
   -1.7994    1.3445    0.1081 H   0  0  0  0  0  0  0  0  0  0  0  0
   -1.0561   -1.0708   -1.3463 H   0  0  0  0  0  0  0  0  0  0  0  0
   -2.4756   -0.5104    2.4570 H   0  0  0  0  0  0  0  0  0  0  0  0
   -1.9692    2.7684    0.0518 H   0  0  0  0  0  0  0  0  0  0  0  0
   -0.2335    0.9932   -0.2224 H   0  0  0  0  0  0  0  0  0  0  0  0
   -1.4852   -0.1442   -0.6615 H   0  0  0  0  0  0  0  0  0  0  0  0
   -2.0008    1.2124   -2.4785 H   0  0  0  0  0  0  0  0  0  0  0  0
   -4.2267    2.0914   -0.1160 H   0  0  0  0  0  0  0  0  0  0  0  0
   -2.6222    1.5781   -2.4445 H   0  0  0  0  0  0  0  0  0  0  0  0
   -4.7625   -0.0490   -1.1728 H   0  0  0  0  0  0  0  0  0  0  0  0
   -1.9333   -0.5119   -0.9954 H   0  0  0  0  0  0  0  0  0  0  0  0
   -4.6595    0.0060    1.2703 H   0  0  0  0  0  0  0  0  0  0  0  0
   -5.6217   -2.8113   -0.6178 H   0  0  0  0  0  0  0  0  0  0  0  0
   -6.0893   -6.3817   -0.5606 H   0  0  0  0  0  0  0  0  0  0  0  0
   -3.6040   -8.9562    0.0961 H   0  0  0  0  0  0  0  0  0  0  0  0
   -2.0298   -7.2480    0.3677 H   0  0  0  0  0  0  0  0  0  0  0  0
   -1.6903   -3.6096    2.2822 H   0  0  0  0  0  0  0  0  0  0  0  0
    0.5580   -2.8109    2.7821 H   0  0  0  0  0  0  0  0  0  0  0  0
    2.4707   -3.4405    1.3345 H   0  0  0  0  0  0  0  0  0  0  0  0
    3.1657   -4.7773   -0.6204 H   0  0  0  0  0  0  0  0  0  0  0  0
   -0.2302   -5.6659   -1.1250 H   0  0  0  0  0  0  0  0  0  0  0  0
   -3.8899   -0.1734   -3.3244 H   0  0  0  0  0  0  0  0  0  0  0  0
   -0.5665    3.6455   -3.5267 H   0  0  0  0  0  0  0  0  0  0  0  0
   -1.1752    4.9992   -2.5234 H   0  0  0  0  0  0  0  0  0  0  0  0
   -0.1188    3.0308   -1.5489 H   0  0  0  0  0  0  0  0  0  0  0  0
   -1.6937    3.6298   -0.8703 H   0  0  0  0  0  0  0  0  0  0  0  0
   -1.8072    2.0706   -2.7605 H   0  0  0  0  0  0  0  0  0  0  0  0
  1  2  2  0  0  0  0
  1 43  1  0  0  0  0
  1 44  1  0  0  0  0
  2  3  1  0  0  0  0
  2 45  1  0  0  0  0
  3  4  1  0  0  0  0
  3 42  1  0  0  0  0
  3 46  1  0  0  0  0
  4  5  1  0  0  0  0
  4 34  1  0  0  0  0
  4 47  1  0  0  0  0
  5  6  1  0  0  0  0
  6  7  1  0  0  0  0
  6 15  1  0  0  0  0
  6 48  1  0  0  0  0
  7  8  1  0  0  0  0
  8  9  1  0  0  0  0
  8 11  1  0  0  0  0
  8 49  1  0  0  0  0
  9 10  1  0  0  0  0
  9 50  1  0  0  0  0
  9 51  1  0  0  0  0
 10 52  1  0  0  0  0
 11 12  1  0  0  0  0
 11 13  1  0  0  0  0
 11 53  1  0  0  0  0
 12 54  1  0  0  0  0
 13 14  1  0  0  0  0
 13 15  1  0  0  0  0
 13 55  1  0  0  0  0
 14 56  1  0  0  0  0
 15 16  1  0  0  0  0
 15 57  1  0  0  0  0
 16 17  1  0  0  0  0
 17 18  2  0  0  0  0
 17 19  1  0  0  0  0
 19 20  1  0  0  0  0
 19 26  2  0  0  0  0
 20 21  1  0  0  0  0
 20 22  2  0  0  0  0
 21 58  1  0  0  0  0
 22 23  1  0  0  0  0
 22 59  1  0  0  0  0
 23 24  1  0  0  0  0
 23 25  2  0  0  0  0
 24 60  1  0  0  0  0
 25 26  1  0  0  0  0
 25 61  1  0  0  0  0
 26 27  1  0  0  0  0
 27 28  1  0  0  0  0
 27 33  2  0  0  0  0
 28 29  2  0  0  0  0
 28 62  1  0  0  0  0
 29 30  1  0  0  0  0
 29 63  1  0  0  0  0
 30 31  2  0  0  0  0
 30 64  1  0  0  0  0
 31 32  1  0  0  0  0
 31 33  1  0  0  0  0
 32 65  1  0  0  0  0
 33 66  1  0  0  0  0
 34 35  1  0  0  0  0
 35 36  2  0  0  0  0
 35 67  1  0  0  0  0
 36 37  1  0  0  0  0
 36 42  1  0  0  0  0
 37 38  2  0  0  0  0
 37 39  1  0  0  0  0
 39 40  1  0  0  0  0
 40 41  1  0  0  0  0
 40 68  1  0  0  0  0
 40 69  1  0  0  0  0
 41 42  1  0  0  0  0
 41 70  1  0  0  0  0
 41 71  1  0  0  0  0
 42 72  1  0  0  0  0
M  END
