
 OpenBabel03132514253D

 47 50  0  0  0  0  0  0  0  0999 V2000
    0.9445   -0.0788    0.0264 C   0  0  0  0  0  0  0  0  0  0  0  0
    0.4711   -0.0155    1.3637 O   0  0  0  0  0  0  0  0  0  0  0  0
    0.9445   -1.1420    2.0872 C   0  0  0  0  0  0  0  0  0  0  0  0
    1.9668   -0.5039    3.0302 O   0  0  0  0  0  0  0  0  0  0  0  0
    1.9960    1.0088    2.8032 C   0  0  0  0  0  0  0  0  0  0  0  0
    1.9218    2.6103    6.9174 O   0  0  0  0  0  0  0  0  0  0  0  0
    1.2794    3.4236    5.9467 C   0  0  0  0  0  0  0  0  0  0  0  0
    1.7408    4.8555    5.7299 C   0  0  0  0  0  0  0  0  0  0  0  0
   -0.2227    3.6472    6.4799 C   0  0  0  0  0  0  0  0  0  0  0  0
   -0.9217    2.2184    6.7306 C   0  0  0  0  0  0  0  0  0  0  0  0
   -2.1447    1.8292    6.1025 C   0  0  0  0  0  0  0  0  0  0  0  0
   -2.3920    0.3393    6.3462 C   0  0  0  0  0  0  0  0  0  0  0  0
   -3.5755    0.1688    7.2846 C   0  0  0  0  0  0  0  0  0  0  0  0
   -2.6928   -0.3518    5.0151 C   0  0  0  0  0  0  0  0  0  0  0  0
   -1.4889   -1.1443    4.5775 C   0  0  0  0  0  0  0  0  0  0  0  0
   -1.2065   -1.2364    3.2464 C   0  0  0  0  0  0  0  0  0  0  0  0
   -0.0085   -2.0278    2.8918 C   0  0  0  0  0  0  0  0  0  0  0  0
   -0.4133   -3.2373    2.0650 C   0  0  0  0  0  0  0  0  0  0  0  0
    3.2968    1.5843    3.3671 C   0  0  0  0  0  0  0  0  0  0  0  0
    3.0090    2.2955    4.6900 O   0  0  0  0  0  0  0  0  0  0  0  0
    1.5766    2.8331    4.6797 O   0  0  0  0  0  0  0  0  0  0  0  0
    0.5878    0.7700   -0.5187 H   0  0  0  0  0  0  0  0  0  0  0  0
    0.5878   -0.9754   -0.4361 H   0  0  0  0  0  0  0  0  0  0  0  0
    2.0145   -0.0788    0.0264 H   0  0  0  0  0  0  0  0  0  0  0  0
    1.2728   -1.8612    1.3663 H   0  0  0  0  0  0  0  0  0  0  0  0
    1.9407    1.2132    1.7543 H   0  0  0  0  0  0  0  0  0  0  0  0
    1.6337    5.4066    6.6408 H   0  0  0  0  0  0  0  0  0  0  0  0
    2.7680    4.8578    5.4303 H   0  0  0  0  0  0  0  0  0  0  0  0
    1.1455    5.3103    4.9659 H   0  0  0  0  0  0  0  0  0  0  0  0
   -0.7822    4.1948    5.7504 H   0  0  0  0  0  0  0  0  0  0  0  0
   -0.1974    4.1977    7.3970 H   0  0  0  0  0  0  0  0  0  0  0  0
   -1.2245    2.3049    7.7532 H   0  0  0  0  0  0  0  0  0  0  0  0
   -0.1980    1.4827    6.4480 H   0  0  0  0  0  0  0  0  0  0  0  0
   -3.1105    2.2806    6.0112 H   0  0  0  0  0  0  0  0  0  0  0  0
   -1.5213   -0.0993    6.7870 H   0  0  0  0  0  0  0  0  0  0  0  0
   -3.7484   -0.8733    7.4549 H   0  0  0  0  0  0  0  0  0  0  0  0
   -3.3650    0.6523    8.2156 H   0  0  0  0  0  0  0  0  0  0  0  0
   -4.4462    0.6075    6.8438 H   0  0  0  0  0  0  0  0  0  0  0  0
   -2.9230    0.3854    4.2745 H   0  0  0  0  0  0  0  0  0  0  0  0
   -3.5283   -1.0093    5.1355 H   0  0  0  0  0  0  0  0  0  0  0  0
   -1.7264   -2.1488    4.8597 H   0  0  0  0  0  0  0  0  0  0  0  0
   -0.6353   -0.7045    5.0496 H   0  0  0  0  0  0  0  0  0  0  0  0
   -2.1538   -1.2777    2.7507 H   0  0  0  0  0  0  0  0  0  0  0  0
    0.4783   -2.3632    3.7836 H   0  0  0  0  0  0  0  0  0  0  0  0
    0.4585   -3.8027    1.8096 H   0  0  0  0  0  0  0  0  0  0  0  0
   -1.0820   -3.8499    2.6328 H   0  0  0  0  0  0  0  0  0  0  0  0
   -0.9013   -2.9108    1.1705 H   0  0  0  0  0  0  0  0  0  0  0  0
  1  2  1  0  0  0  0
  1 22  1  0  0  0  0
  1 23  1  0  0  0  0
  1 24  1  0  0  0  0
  2  3  1  0  0  0  0
  3  4  1  0  0  0  0
  3 17  1  0  0  0  0
  3 25  1  0  0  0  0
  4  5  1  0  0  0  0
  5  6  1  0  0  0  0
  5 19  1  0  0  0  0
  5 26  1  0  0  0  0
  6  7  1  0  0  0  0
  7  8  1  0  0  0  0
  7  9  1  0  0  0  0
  7 21  1  0  0  0  0
  8 27  1  0  0  0  0
  8 28  1  0  0  0  0
  8 29  1  0  0  0  0
  9 10  1  0  0  0  0
  9 30  1  0  0  0  0
  9 31  1  0  0  0  0
 10 11  1  0  0  0  0
 10 32  1  0  0  0  0
 10 33  1  0  0  0  0
 11 12  1  0  0  0  0
 11 19  1  0  0  0  0
 11 34  1  0  0  0  0
 12 13  1  0  0  0  0
 12 14  1  0  0  0  0
 12 35  1  0  0  0  0
 13 36  1  0  0  0  0
 13 37  1  0  0  0  0
 13 38  1  0  0  0  0
 14 15  1  0  0  0  0
 14 39  1  0  0  0  0
 14 40  1  0  0  0  0
 15 16  1  0  0  0  0
 15 41  1  0  0  0  0
 15 42  1  0  0  0  0
 16 17  1  0  0  0  0
 16 19  1  0  0  0  0
 16 43  1  0  0  0  0
 17 18  1  0  0  0  0
 17 44  1  0  0  0  0
 18 45  1  0  0  0  0
 18 46  1  0  0  0  0
 18 47  1  0  0  0  0
 19 20  1  0  0  0  0
 20 21  1  0  0  0  0
M  END
