
 OpenBabel03132512093D

123130  0  0  0  0  0  0  0  0999 V2000
    0.9402   -0.0052    0.0800 C   0  0  0  0  0  0  0  0  0  0  0  0
    0.4335    1.0661   -0.8718 C   0  0  0  0  0  0  0  0  0  0  0  0
    0.9402    0.7775   -2.2755 C   0  0  0  0  0  0  0  0  0  0  0  0
   -0.9865    1.0661   -0.8718 O   0  0  0  0  0  0  0  0  0  0  0  0
    0.9402    2.4261   -0.4199 C   0  0  0  0  0  0  0  0  0  0  0  0
    0.6655    3.5605   -1.4374 C   0  0  0  0  0  0  0  0  0  0  0  0
    0.8964    4.8399   -0.5900 C   0  0  0  0  0  0  0  0  0  0  0  0
    0.3198    4.4853    0.7968 C   0  0  0  0  0  0  0  0  0  0  0  0
   -1.0938    5.0207    0.9562 C   0  0  0  0  0  0  0  0  0  0  0  0
    1.1720    5.1037    1.8930 C   0  0  0  0  0  0  0  0  0  0  0  0
    0.7155    4.5648    3.2710 C   0  0  0  0  0  0  0  0  0  0  0  0
   -0.4202    5.2390    3.7925 O   0  0  0  0  0  0  0  0  0  0  0  0
    1.9887    4.7371    4.1416 C   0  0  0  0  0  0  0  0  0  0  0  0
    3.1502    4.3862    3.1883 C   0  0  0  0  0  0  0  0  0  0  0  0
    3.6015    2.9475    3.3800 C   0  0  0  0  0  0  0  0  0  0  0  0
    4.3453    5.2837    3.4649 C   0  0  0  0  0  0  0  0  0  0  0  0
    5.7457    5.2448    2.9092 C   0  0  0  0  0  0  0  0  0  0  0  0
    5.8110    5.0865    1.4264 C   0  0  0  0  0  0  0  0  0  0  0  0
    4.7193    4.2533    1.0656 O   0  0  0  0  0  0  0  0  0  0  0  0
    3.5009    4.8854    1.4295 C   0  0  0  0  0  0  0  0  0  0  0  0
    3.4834    5.2999    2.9027 O   0  0  0  0  0  0  0  0  0  0  0  0
    4.7041    5.9707    3.2228 C   0  0  0  0  0  0  0  0  0  0  0  0
    5.8341    5.0170    2.8705 C   0  0  0  0  0  0  0  0  0  0  0  0
    7.0792    5.6186    3.1933 O   0  0  0  0  0  0  0  0  0  0  0  0
    4.9257    7.1670    2.4737 C   0  0  0  0  0  0  0  0  0  0  0  0
    6.1458    7.7650    2.8861 O   0  0  0  0  0  0  0  0  0  0  0  0
    5.0016    6.8281    0.9831 C   0  0  0  0  0  0  0  0  0  0  0  0
    6.1065    5.9688    0.7441 O   0  0  0  0  0  0  0  0  0  0  0  0
    3.7051    6.1303    0.5599 C   0  0  0  0  0  0  0  0  0  0  0  0
    3.7882    5.7523   -0.8063 O   0  0  0  0  0  0  0  0  0  0  0  0
    5.6513    6.3135    0.6763 C   0  0  0  0  0  0  0  0  0  0  0  0
    6.6404    7.3723    0.8890 C   0  0  0  0  0  0  0  0  0  0  0  0
    8.0455    6.7974    0.9639 C   0  0  0  0  0  0  0  0  0  0  0  0
    6.3626    8.0919    2.1987 C   0  0  0  0  0  0  0  0  0  0  0  0
    6.5080    8.3505   -0.2902 C   0  0  0  0  0  0  0  0  0  0  0  0
    6.8579    7.6694   -1.4861 O   0  0  0  0  0  0  0  0  0  0  0  0
    5.9802    6.5699   -1.6788 C   0  0  0  0  0  0  0  0  0  0  0  0
    5.8090    5.0855   -1.3478 O   0  0  0  0  0  0  0  0  0  0  0  0
    5.0857    4.9514   -0.1225 C   0  0  0  0  0  0  0  0  0  0  0  0
    3.7700    5.5072   -0.1584 C   0  0  0  0  0  0  0  0  0  0  0  0
    3.1330    5.2978    1.0933 O   0  0  0  0  0  0  0  0  0  0  0  0
    3.8586    7.0088   -0.4412 C   0  0  0  0  0  0  0  0  0  0  0  0
    4.5609    7.6526    0.6117 O   0  0  0  0  0  0  0  0  0  0  0  0
    4.5991    7.2280   -1.7642 C   0  0  0  0  0  0  0  0  0  0  0  0
    4.7453    8.6194   -2.0069 O   0  0  0  0  0  0  0  0  0  0  0  0
    5.0717    8.8579   -0.4196 C   0  0  0  0  0  0  0  0  0  0  0  0
    4.0779    7.6835   -0.4463 C   0  0  0  0  0  0  0  0  0  0  0  0
    4.3883    6.8834    0.7737 C   0  0  0  0  0  0  0  0  0  0  0  0
    3.6249    6.9520    1.8028 C   0  0  0  0  0  0  0  0  0  0  0  0
    3.7105    6.6477    3.2637 C   0  0  0  0  0  0  0  0  0  0  0  0
    3.2382    7.1060    4.6338 C   0  0  0  0  0  0  0  0  0  0  0  0
    3.4717    5.6756    1.0607 C   0  0  0  0  0  0  0  0  0  0  0  0
    2.6305    4.6193    1.7587 C   0  0  0  0  0  0  0  0  0  0  0  0
    2.7112    3.3464    0.9319 C   0  0  0  0  0  0  0  0  0  0  0  0
    0.3478    2.9505    0.9044 O   0  0  0  0  0  0  0  0  0  0  0  0
    0.5835   -0.9626   -0.2382 H   0  0  0  0  0  0  0  0  0  0  0  0
    0.5835    0.1979    1.0681 H   0  0  0  0  0  0  0  0  0  0  0  0
    2.0102   -0.0052    0.0800 H   0  0  0  0  0  0  0  0  0  0  0  0
    0.5835   -0.1798   -2.5937 H   0  0  0  0  0  0  0  0  0  0  0  0
    0.5835    1.5317   -2.9455 H   0  0  0  0  0  0  0  0  0  0  0  0
    2.0102    0.7775   -2.2755 H   0  0  0  0  0  0  0  0  0  0  0  0
   -1.3198    0.1714   -1.1691 H   0  0  0  0  0  0  0  0  0  0  0  0
    1.9839    2.2186   -0.3080 H   0  0  0  0  0  0  0  0  0  0  0  0
    1.2850    3.5098   -2.3083 H   0  0  0  0  0  0  0  0  0  0  0  0
   -0.3390    3.5159   -1.8034 H   0  0  0  0  0  0  0  0  0  0  0  0
    0.4324    5.7040   -1.0178 H   0  0  0  0  0  0  0  0  0  0  0  0
    1.9400    5.0657   -0.5205 H   0  0  0  0  0  0  0  0  0  0  0  0
   -1.4714    4.7493    1.9199 H   0  0  0  0  0  0  0  0  0  0  0  0
   -1.0839    6.0867    0.8643 H   0  0  0  0  0  0  0  0  0  0  0  0
   -1.7212    4.6030    0.1968 H   0  0  0  0  0  0  0  0  0  0  0  0
    1.0826    6.1668    1.8118 H   0  0  0  0  0  0  0  0  0  0  0  0
    0.4277    3.5362    3.2073 H   0  0  0  0  0  0  0  0  0  0  0  0
   -0.2183    6.2146    3.8787 H   0  0  0  0  0  0  0  0  0  0  0  0
    1.9745    4.1190    5.0149 H   0  0  0  0  0  0  0  0  0  0  0  0
    2.0758    5.7447    4.4911 H   0  0  0  0  0  0  0  0  0  0  0  0
    4.3972    2.7295    2.6986 H   0  0  0  0  0  0  0  0  0  0  0  0
    3.9449    2.8122    4.3844 H   0  0  0  0  0  0  0  0  0  0  0  0
    2.7802    2.2880    3.1920 H   0  0  0  0  0  0  0  0  0  0  0  0
    4.7187    4.9008    4.3916 H   0  0  0  0  0  0  0  0  0  0  0  0
    6.1937    6.1892    3.1378 H   0  0  0  0  0  0  0  0  0  0  0  0
    6.2620    4.4219    3.3577 H   0  0  0  0  0  0  0  0  0  0  0  0
    6.7634    4.6666    1.1783 H   0  0  0  0  0  0  0  0  0  0  0  0
    2.6105    4.3056    1.3035 H   0  0  0  0  0  0  0  0  0  0  0  0
    4.6860    6.2236    4.2623 H   0  0  0  0  0  0  0  0  0  0  0  0
    5.7215    4.1098    3.4265 H   0  0  0  0  0  0  0  0  0  0  0  0
    5.8038    4.7996    1.8233 H   0  0  0  0  0  0  0  0  0  0  0  0
    7.1844    6.4665    2.6737 H   0  0  0  0  0  0  0  0  0  0  0  0
    4.1191    7.8491    2.6439 H   0  0  0  0  0  0  0  0  0  0  0  0
    6.8999    7.1277    2.7272 H   0  0  0  0  0  0  0  0  0  0  0  0
    5.1252    7.7277    0.4171 H   0  0  0  0  0  0  0  0  0  0  0  0
    5.9942    5.1267    1.2717 H   0  0  0  0  0  0  0  0  0  0  0  0
    2.8794    6.7982    0.6902 H   0  0  0  0  0  0  0  0  0  0  0  0
    4.5588    5.1278   -0.9331 H   0  0  0  0  0  0  0  0  0  0  0  0
    5.8170    5.9304   -0.3089 H   0  0  0  0  0  0  0  0  0  0  0  0
    8.7485    7.5911    1.1079 H   0  0  0  0  0  0  0  0  0  0  0  0
    8.1075    6.1129    1.7840 H   0  0  0  0  0  0  0  0  0  0  0  0
    8.2696    6.2834    0.0526 H   0  0  0  0  0  0  0  0  0  0  0  0
    5.3851    8.5260    2.1668 H   0  0  0  0  0  0  0  0  0  0  0  0
    6.4165    7.3936    3.0077 H   0  0  0  0  0  0  0  0  0  0  0  0
    7.0905    8.8625    2.3437 H   0  0  0  0  0  0  0  0  0  0  0  0
    7.1606    9.1831   -0.1297 H   0  0  0  0  0  0  0  0  0  0  0  0
    6.7539    6.1119   -2.2588 H   0  0  0  0  0  0  0  0  0  0  0  0
    5.6311    5.4968    0.6191 H   0  0  0  0  0  0  0  0  0  0  0  0
    5.0043    3.9096    0.1075 H   0  0  0  0  0  0  0  0  0  0  0  0
    3.2027    5.0316   -0.9309 H   0  0  0  0  0  0  0  0  0  0  0  0
    3.6630    5.7423    1.8155 H   0  0  0  0  0  0  0  0  0  0  0  0
    2.8728    7.4189   -0.5104 H   0  0  0  0  0  0  0  0  0  0  0  0
    5.4830    7.2715    0.6792 H   0  0  0  0  0  0  0  0  0  0  0  0
    4.0413    6.7883   -2.5645 H   0  0  0  0  0  0  0  0  0  0  0  0
    5.2663    9.0349   -1.2612 H   0  0  0  0  0  0  0  0  0  0  0  0
    4.9819    9.4042   -1.3352 H   0  0  0  0  0  0  0  0  0  0  0  0
    4.8462    9.4893    0.4143 H   0  0  0  0  0  0  0  0  0  0  0  0
    4.1682    7.1024   -1.3403 H   0  0  0  0  0  0  0  0  0  0  0  0
    3.0706    8.0429   -0.4135 H   0  0  0  0  0  0  0  0  0  0  0  0
    3.1188    6.0378    1.5728 H   0  0  0  0  0  0  0  0  0  0  0  0
    3.3468    7.9852    1.8060 H   0  0  0  0  0  0  0  0  0  0  0  0
    2.2674    7.5476    4.5471 H   0  0  0  0  0  0  0  0  0  0  0  0
    3.1900    6.2654    5.2941 H   0  0  0  0  0  0  0  0  0  0  0  0
    4.4893    5.3480    1.0146 H   0  0  0  0  0  0  0  0  0  0  0  0
    3.1009    5.8286    0.0687 H   0  0  0  0  0  0  0  0  0  0  0  0
    2.3326    3.5348   -0.0509 H   0  0  0  0  0  0  0  0  0  0  0  0
    3.7306    3.0277    0.8664 H   0  0  0  0  0  0  0  0  0  0  0  0
    2.1274    2.5806    1.3983 H   0  0  0  0  0  0  0  0  0  0  0  0
  1  2  1  0  0  0  0
  1 56  1  0  0  0  0
  1 57  1  0  0  0  0
  1 58  1  0  0  0  0
  2  3  1  0  0  0  0
  2  4  1  0  0  0  0
  2  5  1  0  0  0  0
  3 59  1  0  0  0  0
  3 60  1  0  0  0  0
  3 61  1  0  0  0  0
  4 62  1  0  0  0  0
  5  6  1  0  0  0  0
  5 55  1  0  0  0  0
  5 63  1  0  0  0  0
  6  7  1  0  0  0  0
  6 64  1  0  0  0  0
  6 65  1  0  0  0  0
  7  8  1  0  0  0  0
  7 66  1  0  0  0  0
  7 67  1  0  0  0  0
  8  9  1  0  0  0  0
  8 10  1  0  0  0  0
  8 55  1  0  0  0  0
  9 68  1  0  0  0  0
  9 69  1  0  0  0  0
  9 70  1  0  0  0  0
 10 11  1  0  0  0  0
 10 53  1  0  0  0  0
 10 71  1  0  0  0  0
 11 12  1  0  0  0  0
 11 13  1  0  0  0  0
 11 72  1  0  0  0  0
 12 73  1  0  0  0  0
 13 14  1  0  0  0  0
 13 74  1  0  0  0  0
 13 75  1  0  0  0  0
 14 15  1  0  0  0  0
 14 16  1  0  0  0  0
 14 53  1  0  0  0  0
 15 76  1  0  0  0  0
 15 77  1  0  0  0  0
 15 78  1  0  0  0  0
 16 17  1  0  0  0  0
 16 50  1  0  0  0  0
 16 79  1  0  0  0  0
 17 18  1  0  0  0  0
 17 80  1  0  0  0  0
 17 81  1  0  0  0  0
 18 19  1  0  0  0  0
 18 31  1  0  0  0  0
 18 82  1  0  0  0  0
 19 20  1  0  0  0  0
 20 21  1  0  0  0  0
 20 29  1  0  0  0  0
 20 83  1  0  0  0  0
 21 22  1  0  0  0  0
 22 23  1  0  0  0  0
 22 25  1  0  0  0  0
 22 84  1  0  0  0  0
 23 24  1  0  0  0  0
 23 85  1  0  0  0  0
 23 86  1  0  0  0  0
 24 87  1  0  0  0  0
 25 26  1  0  0  0  0
 25 27  1  0  0  0  0
 25 88  1  0  0  0  0
 26 89  1  0  0  0  0
 27 28  1  0  0  0  0
 27 29  1  0  0  0  0
 27 90  1  0  0  0  0
 28 91  1  0  0  0  0
 29 30  1  0  0  0  0
 29 92  1  0  0  0  0
 30 93  1  0  0  0  0
 31 32  1  0  0  0  0
 31 48  1  0  0  0  0
 31 94  1  0  0  0  0
 32 33  1  0  0  0  0
 32 34  1  0  0  0  0
 32 35  1  0  0  0  0
 33 95  1  0  0  0  0
 33 96  1  0  0  0  0
 33 97  1  0  0  0  0
 34 98  1  0  0  0  0
 34 99  1  0  0  0  0
 34100  1  0  0  0  0
 35 36  1  0  0  0  0
 35 46  1  0  0  0  0
 35101  1  0  0  0  0
 36 37  1  0  0  0  0
 37 38  1  0  0  0  0
 37 44  1  0  0  0  0
 37102  1  0  0  0  0
 38 39  1  0  0  0  0
 39 40  1  0  0  0  0
 39103  1  0  0  0  0
 39104  1  0  0  0  0
 40 41  1  0  0  0  0
 40 42  1  0  0  0  0
 40105  1  0  0  0  0
 41106  1  0  0  0  0
 42 43  1  0  0  0  0
 42 44  1  0  0  0  0
 42107  1  0  0  0  0
 43108  1  0  0  0  0
 44 45  1  0  0  0  0
 44109  1  0  0  0  0
 45110  1  0  0  0  0
 46 47  1  0  0  0  0
 46111  1  0  0  0  0
 46112  1  0  0  0  0
 47 48  1  0  0  0  0
 47113  1  0  0  0  0
 47114  1  0  0  0  0
 48 49  1  0  0  0  0
 48 50  1  0  0  0  0
 49 50  1  0  0  0  0
 49115  1  0  0  0  0
 49116  1  0  0  0  0
 50 51  1  0  0  0  0
 51 52  1  0  0  0  0
 51117  1  0  0  0  0
 51118  1  0  0  0  0
 52 53  1  0  0  0  0
 52119  1  0  0  0  0
 52120  1  0  0  0  0
 53 54  1  0  0  0  0
 54121  1  0  0  0  0
 54122  1  0  0  0  0
 54123  1  0  0  0  0
M  END
