
 OpenBabel03132512083D

 43 47  0  0  0  0  0  0  0  0999 V2000
    0.9869    0.0508    0.0852 C   0  0  0  0  0  0  0  0  0  0  0  0
    0.5135    0.1988   -1.2454 O   0  0  0  0  0  0  0  0  0  0  0  0
    0.8566    1.3539   -1.9967 C   0  0  0  0  0  0  0  0  0  0  0  0
    2.1566    1.8739   -2.0357 C   0  0  0  0  0  0  0  0  0  0  0  0
    2.5019    2.8726   -2.8957 C   0  0  0  0  0  0  0  0  0  0  0  0
    1.5419    3.4409   -3.7270 C   0  0  0  0  0  0  0  0  0  0  0  0
    1.8022    4.5100   -4.6233 C   0  0  0  0  0  0  0  0  0  0  0  0
    0.8393    5.0567   -5.4024 C   0  0  0  0  0  0  0  0  0  0  0  0
   -0.4407    4.5547   -5.3244 N   0  3  0  0  0  0  0  0  0  0  0  0
   -0.7442    3.5268   -4.5256 C   0  0  0  0  0  0  0  0  0  0  0  0
    0.2172    2.9275   -3.6975 C   0  0  0  0  0  0  0  0  0  0  0  0
   -0.1092    1.8638   -2.8230 C   0  0  0  0  0  0  0  0  0  0  0  0
   -1.4251    1.3306   -2.8024 O   0  0  0  0  0  0  0  0  0  0  0  0
   -1.7449    0.2633   -1.9221 C   0  0  0  0  0  0  0  0  0  0  0  0
   -1.5435    5.1775   -6.0909 C   0  0  0  0  0  0  0  0  0  0  0  0
   -1.1240    5.6884   -7.3815 C   0  0  0  0  0  0  0  0  0  0  0  0
    0.1356    6.5101   -7.2963 C   0  0  0  0  0  0  0  0  0  0  0  0
    0.3672    7.5228   -8.2134 C   0  0  0  0  0  0  0  0  0  0  0  0
    1.5818    8.1637   -8.1509 C   0  0  0  0  0  0  0  0  0  0  0  0
    2.5415    7.8277   -7.2308 C   0  0  0  0  0  0  0  0  0  0  0  0
    2.3273    6.8510   -6.3043 C   0  0  0  0  0  0  0  0  0  0  0  0
    1.0853    6.1764   -6.3510 C   0  0  0  0  0  0  0  0  0  0  0  0
    3.6278    8.6230   -7.3724 O   0  0  0  0  0  0  0  0  0  0  0  0
    3.4041    9.3845   -8.5507 C   0  0  0  0  0  0  0  0  0  0  0  0
    2.0212    9.1920   -8.9342 O   0  0  0  0  0  0  0  0  0  0  0  0
    0.6302   -0.8733    0.4899 H   0  0  0  0  0  0  0  0  0  0  0  0
    0.6302    0.8633    0.6831 H   0  0  0  0  0  0  0  0  0  0  0  0
    2.0569    0.0508    0.0852 H   0  0  0  0  0  0  0  0  0  0  0  0
    2.8972    1.4767   -1.3734 H   0  0  0  0  0  0  0  0  0  0  0  0
    3.5131    3.2205   -2.9318 H   0  0  0  0  0  0  0  0  0  0  0  0
    2.7971    4.8988   -4.6857 H   0  0  0  0  0  0  0  0  0  0  0  0
   -1.7461    3.1512   -4.5173 H   0  0  0  0  0  0  0  0  0  0  0  0
   -1.1273   -0.5812   -2.1462 H   0  0  0  0  0  0  0  0  0  0  0  0
   -1.5750    0.5713   -0.9115 H   0  0  0  0  0  0  0  0  0  0  0  0
   -2.7736   -0.0045   -2.0452 H   0  0  0  0  0  0  0  0  0  0  0  0
   -2.2743    4.4172   -6.2718 H   0  0  0  0  0  0  0  0  0  0  0  0
   -1.9411    5.9883   -5.5169 H   0  0  0  0  0  0  0  0  0  0  0  0
   -0.9216    4.8485   -8.0128 H   0  0  0  0  0  0  0  0  0  0  0  0
   -1.9065    6.3005   -7.7788 H   0  0  0  0  0  0  0  0  0  0  0  0
   -0.3693    7.7948   -8.9404 H   0  0  0  0  0  0  0  0  0  0  0  0
    3.0680    6.6051   -5.5723 H   0  0  0  0  0  0  0  0  0  0  0  0
    4.0609    9.0697   -9.3345 H   0  0  0  0  0  0  0  0  0  0  0  0
    3.5892   10.4205   -8.3574 H   0  0  0  0  0  0  0  0  0  0  0  0
  1  2  1  0  0  0  0
  1 26  1  0  0  0  0
  1 27  1  0  0  0  0
  1 28  1  0  0  0  0
  2  3  1  0  0  0  0
  3  4  1  0  0  0  0
  3 12  2  0  0  0  0
  4  5  2  0  0  0  0
  4 29  1  0  0  0  0
  5  6  1  0  0  0  0
  5 30  1  0  0  0  0
  6  7  1  0  0  0  0
  6 11  2  0  0  0  0
  7  8  2  0  0  0  0
  7 31  1  0  0  0  0
  8  9  1  0  0  0  0
  8 22  1  0  0  0  0
  9 10  2  0  0  0  0
  9 15  1  0  0  0  0
 10 11  1  0  0  0  0
 10 32  1  0  0  0  0
 11 12  1  0  0  0  0
 12 13  1  0  0  0  0
 13 14  1  0  0  0  0
 14 33  1  0  0  0  0
 14 34  1  0  0  0  0
 14 35  1  0  0  0  0
 15 16  1  0  0  0  0
 15 36  1  0  0  0  0
 15 37  1  0  0  0  0
 16 17  1  0  0  0  0
 16 38  1  0  0  0  0
 16 39  1  0  0  0  0
 17 18  1  0  0  0  0
 17 22  2  0  0  0  0
 18 19  2  0  0  0  0
 18 40  1  0  0  0  0
 19 20  1  0  0  0  0
 19 25  1  0  0  0  0
 20 21  2  0  0  0  0
 20 23  1  0  0  0  0
 21 22  1  0  0  0  0
 21 41  1  0  0  0  0
 23 24  1  0  0  0  0
 24 25  1  0  0  0  0
 24 42  1  0  0  0  0
 24 43  1  0  0  0  0
M  CHG  1   9   1
M  END
