
 OpenBabel03132512093D

 16 15  0  0  0  0  0  0  0  0999 V2000
    1.0680    0.0116    0.0724 C   0  0  0  0  0  0  0  0  0  0  0  0
    0.5614   -1.1730   -0.7341 C   0  0  0  0  0  0  0  0  0  0  0  0
    1.0680   -2.4638   -0.1115 C   0  0  0  0  0  0  0  0  0  0  0  0
    0.5780   -2.5664    1.2706 N   0  0  0  0  0  0  0  0  0  0  0  0
   -0.9586   -1.1730   -0.7341 C   0  0  0  0  0  0  0  0  0  0  0  0
   -1.5941   -1.0915   -1.8317 O   0  0  0  0  0  0  0  0  0  0  0  0
   -1.6686   -1.2641    0.4923 O   0  0  0  0  0  0  0  0  0  0  0  0
    0.7114   -0.0631    1.0784 H   0  0  0  0  0  0  0  0  0  0  0  0
    0.7114    0.9202   -0.3659 H   0  0  0  0  0  0  0  0  0  0  0  0
    2.1380    0.0116    0.0724 H   0  0  0  0  0  0  0  0  0  0  0  0
    0.9180   -1.0983   -1.7402 H   0  0  0  0  0  0  0  0  0  0  0  0
    0.7114   -3.2976   -0.6792 H   0  0  0  0  0  0  0  0  0  0  0  0
    2.1380   -2.4638   -0.1115 H   0  0  0  0  0  0  0  0  0  0  0  0
    0.9180   -3.4326    1.6885 H   0  0  0  0  0  0  0  0  0  0  0  0
    0.9180   -1.7715    1.8118 H   0  0  0  0  0  0  0  0  0  0  0  0
   -2.6686   -1.2641    0.4923 H   0  0  0  0  0  0  0  0  0  0  0  0
  1  2  1  0  0  0  0
  1  8  1  0  0  0  0
  1  9  1  0  0  0  0
  1 10  1  0  0  0  0
  2  3  1  0  0  0  0
  2  5  1  0  0  0  0
  2 11  1  0  0  0  0
  3  4  1  0  0  0  0
  3 12  1  0  0  0  0
  3 13  1  0  0  0  0
  4 14  1  0  0  0  0
  4 15  1  0  0  0  0
  5  6  2  0  0  0  0
  5  7  1  0  0  0  0
  7 16  1  0  0  0  0
M  END
