
 OpenBabel03132512083D

 32 34  0  0  0  0  0  0  0  0999 V2000
    1.0184   -0.0601    0.0778 C   0  0  0  0  0  0  0  0  0  0  0  0
    0.5117    0.7973    1.2261 C   0  0  0  0  0  0  0  0  0  0  0  0
   -0.9973    0.9791    1.2127 C   0  0  0  0  0  0  0  0  0  0  0  0
    1.2511    2.1361    1.1009 C   0  0  0  0  0  0  0  0  0  0  0  0
    0.8169    3.0324    2.2633 C   0  0  0  0  0  0  0  0  0  0  0  0
    0.8907    2.2601    3.5562 C   0  0  0  0  0  0  0  0  0  0  0  0
    0.9364    0.9002    3.5686 C   0  0  0  0  0  0  0  0  0  0  0  0
    0.9331    0.1658    2.4355 O   0  0  0  0  0  0  0  0  0  0  0  0
    0.9992    0.2119    4.8677 C   0  0  0  0  0  0  0  0  0  0  0  0
    1.0414   -1.1823    4.9426 C   0  0  0  0  0  0  0  0  0  0  0  0
    1.1017   -1.7930    6.1641 C   0  0  0  0  0  0  0  0  0  0  0  0
    1.1198   -1.0391    7.3297 C   0  0  0  0  0  0  0  0  0  0  0  0
    1.0776    0.3372    7.2774 C   0  0  0  0  0  0  0  0  0  0  0  0
    1.0155    0.9784    6.0441 C   0  0  0  0  0  0  0  0  0  0  0  0
    0.9712    2.3550    5.9596 C   0  0  0  0  0  0  0  0  0  0  0  0
    0.9879    3.0480    7.0248 O   0  0  0  0  0  0  0  0  0  0  0  0
    0.9109    2.9735    4.7698 C   0  0  0  0  0  0  0  0  0  0  0  0
    0.8708    4.2434    4.7378 O   0  0  0  0  0  0  0  0  0  0  0  0
    0.6617    0.3382   -0.8490 H   0  0  0  0  0  0  0  0  0  0  0  0
    0.6617   -1.0619    0.1963 H   0  0  0  0  0  0  0  0  0  0  0  0
    2.0884   -0.0601    0.0778 H   0  0  0  0  0  0  0  0  0  0  0  0
   -1.2913    1.4532    0.2997 H   0  0  0  0  0  0  0  0  0  0  0  0
   -1.4724    0.0233    1.2874 H   0  0  0  0  0  0  0  0  0  0  0  0
   -1.2905    1.5888    2.0417 H   0  0  0  0  0  0  0  0  0  0  0  0
    2.3090    1.9784    1.1307 H   0  0  0  0  0  0  0  0  0  0  0  0
    1.0010    2.6024    0.1709 H   0  0  0  0  0  0  0  0  0  0  0  0
    1.4678    3.8798    2.3194 H   0  0  0  0  0  0  0  0  0  0  0  0
   -0.1885    3.3612    2.1025 H   0  0  0  0  0  0  0  0  0  0  0  0
    1.0266   -1.7693    4.0481 H   0  0  0  0  0  0  0  0  0  0  0  0
    1.1352   -2.8609    6.2223 H   0  0  0  0  0  0  0  0  0  0  0  0
    1.1670   -1.5318    8.2784 H   0  0  0  0  0  0  0  0  0  0  0  0
    1.0925    0.9102    8.1809 H   0  0  0  0  0  0  0  0  0  0  0  0
  1  2  1  0  0  0  0
  1 19  1  0  0  0  0
  1 20  1  0  0  0  0
  1 21  1  0  0  0  0
  2  3  1  0  0  0  0
  2  4  1  0  0  0  0
  2  8  1  0  0  0  0
  3 22  1  0  0  0  0
  3 23  1  0  0  0  0
  3 24  1  0  0  0  0
  4  5  1  0  0  0  0
  4 25  1  0  0  0  0
  4 26  1  0  0  0  0
  5  6  1  0  0  0  0
  5 27  1  0  0  0  0
  5 28  1  0  0  0  0
  6  7  2  0  0  0  0
  6 17  1  0  0  0  0
  7  8  1  0  0  0  0
  7  9  1  0  0  0  0
  9 10  1  0  0  0  0
  9 14  2  0  0  0  0
 10 11  2  0  0  0  0
 10 29  1  0  0  0  0
 11 12  1  0  0  0  0
 11 30  1  0  0  0  0
 12 13  2  0  0  0  0
 12 31  1  0  0  0  0
 13 14  1  0  0  0  0
 13 32  1  0  0  0  0
 14 15  1  0  0  0  0
 15 16  2  0  0  0  0
 15 17  1  0  0  0  0
 17 18  2  0  0  0  0
M  END
