
 OpenBabel03132514253D

 84 87  0  0  0  0  0  0  0  0999 V2000
    1.0768    0.0030   -0.0639 C   0  0  0  0  0  0  0  0  0  0  0  0
    0.5702   -0.7937    1.1273 C   0  0  0  0  0  0  0  0  0  0  0  0
    1.0768   -0.1604    2.4128 C   0  0  0  0  0  0  0  0  0  0  0  0
    0.5702    1.2695    2.5072 C   0  0  0  0  0  0  0  0  0  0  0  0
   -0.9498    1.2695    2.5072 C   0  0  0  0  0  0  0  0  0  0  0  0
   -1.4232    0.5253    3.6200 O   0  0  0  0  0  0  0  0  0  0  0  0
   -1.4565    2.6995    2.6016 C   0  0  0  0  0  0  0  0  0  0  0  0
   -0.9498    3.4962    1.4104 C   0  0  0  0  0  0  0  0  0  0  0  0
   -2.9765    2.6995    2.6016 C   0  0  0  0  0  0  0  0  0  0  0  0
   -0.9832    3.2911    3.8025 O   0  0  0  0  0  0  0  0  0  0  0  0
   -0.9498   -0.7937    1.1273 C   0  0  0  0  0  0  0  0  0  0  0  0
   -1.4565   -1.5904    2.3185 C   0  0  0  0  0  0  0  0  0  0  0  0
   -0.9498   -0.9571    3.6040 C   0  0  0  0  0  0  0  0  0  0  0  0
   -1.4565    0.4728    3.6984 C   0  0  0  0  0  0  0  0  0  0  0  0
   -0.5377    1.5740    4.2021 C   0  0  0  0  0  0  0  0  0  0  0  0
   -1.9193    0.8546    2.2913 C   0  0  0  0  0  0  0  0  0  0  0  0
   -1.0289    0.1617    1.2569 C   0  0  0  0  0  0  0  0  0  0  0  0
   -1.5790   -1.2093    0.9585 C   0  0  0  0  0  0  0  0  0  0  0  0
   -0.8483   -2.2729    1.1858 C   0  0  0  0  0  0  0  0  0  0  0  0
   -2.6929   -3.6422    5.0168 C   0  0  0  0  0  0  0  0  0  0  0  0
   -1.6968   -4.1981    4.3096 C   0  0  0  0  0  0  0  0  0  0  0  0
   -2.0635   -4.8873    3.0841 C   0  0  0  0  0  0  0  0  0  0  0  0
   -1.0476   -4.5818    2.0141 C   0  0  0  0  0  0  0  0  0  0  0  0
   -0.8787   -5.8299    1.3584 O   0  0  0  0  0  0  0  0  0  0  0  0
   -1.3984   -3.6429    0.8874 C   0  0  0  0  0  0  0  0  0  0  0  0
   -2.9098   -3.5626    0.7469 C   0  0  0  0  0  0  0  0  0  0  0  0
   -0.7958   -4.1596   -0.4088 C   0  0  0  0  0  0  0  0  0  0  0  0
   -2.3891   -2.9092    6.2976 C   0  0  0  0  0  0  0  0  0  0  0  0
   -1.9217   -3.7230    7.4933 C   0  0  0  0  0  0  0  0  0  0  0  0
   -3.1464   -1.5798    6.3164 C   0  0  0  0  0  0  0  0  0  0  0  0
   -4.3686   -1.4352    6.6336 O   0  0  0  0  0  0  0  0  0  0  0  0
   -2.2046   -0.4536    5.8944 C   0  0  0  0  0  0  0  0  0  0  0  0
   -2.6731    0.1284    4.5593 C   0  0  0  0  0  0  0  0  0  0  0  0
   -3.4870    1.3869    4.8129 C   0  0  0  0  0  0  0  0  0  0  0  0
    0.7202    1.0096    0.0025 H   0  0  0  0  0  0  0  0  0  0  0  0
    0.7202   -0.4428   -0.9689 H   0  0  0  0  0  0  0  0  0  0  0  0
    2.1468    0.0030   -0.0639 H   0  0  0  0  0  0  0  0  0  0  0  0
    0.9268   -1.8003    1.0608 H   0  0  0  0  0  0  0  0  0  0  0  0
    0.7202   -0.7212    3.2514 H   0  0  0  0  0  0  0  0  0  0  0  0
    2.1468   -0.1604    2.4128 H   0  0  0  0  0  0  0  0  0  0  0  0
    0.9268    1.7153    3.4122 H   0  0  0  0  0  0  0  0  0  0  0  0
    0.9268    1.8304    1.6687 H   0  0  0  0  0  0  0  0  0  0  0  0
   -1.3065    0.8238    1.6022 H   0  0  0  0  0  0  0  0  0  0  0  0
   -1.0898   -0.4155    3.5580 H   0  0  0  0  0  0  0  0  0  0  0  0
   -1.3065    3.0504    0.5054 H   0  0  0  0  0  0  0  0  0  0  0  0
   -1.3065    4.5028    1.4768 H   0  0  0  0  0  0  0  0  0  0  0  0
    0.1202    3.4962    1.4104 H   0  0  0  0  0  0  0  0  0  0  0  0
   -3.3332    2.1387    3.4401 H   0  0  0  0  0  0  0  0  0  0  0  0
   -3.3332    3.7061    2.6680 H   0  0  0  0  0  0  0  0  0  0  0  0
   -3.3332    2.2537    1.6966 H   0  0  0  0  0  0  0  0  0  0  0  0
   -1.3165    4.2319    3.8646 H   0  0  0  0  0  0  0  0  0  0  0  0
   -1.3065    0.2129    1.1937 H   0  0  0  0  0  0  0  0  0  0  0  0
   -2.5265   -1.5904    2.3185 H   0  0  0  0  0  0  0  0  0  0  0  0
   -1.0998   -2.5970    2.2520 H   0  0  0  0  0  0  0  0  0  0  0  0
   -1.3065   -1.5180    4.4426 H   0  0  0  0  0  0  0  0  0  0  0  0
    0.1202   -0.9571    3.6040 H   0  0  0  0  0  0  0  0  0  0  0  0
   -0.2208    1.3462    5.1984 H   0  0  0  0  0  0  0  0  0  0  0  0
    0.3176    1.6449    3.5632 H   0  0  0  0  0  0  0  0  0  0  0  0
   -1.0633    2.5061    4.1993 H   0  0  0  0  0  0  0  0  0  0  0  0
   -2.3766    1.6468    1.7361 H   0  0  0  0  0  0  0  0  0  0  0  0
   -1.0090    0.7415    0.3578 H   0  0  0  0  0  0  0  0  0  0  0  0
   -0.0358    0.0710    1.6447 H   0  0  0  0  0  0  0  0  0  0  0  0
   -2.5668   -1.3143    0.5609 H   0  0  0  0  0  0  0  0  0  0  0  0
   -3.6564   -3.9113    5.3963 H   0  0  0  0  0  0  0  0  0  0  0  0
   -1.2940   -4.9579    4.9463 H   0  0  0  0  0  0  0  0  0  0  0  0
   -1.0117   -3.4185    4.0491 H   0  0  0  0  0  0  0  0  0  0  0  0
   -3.0297   -4.5571    2.7640 H   0  0  0  0  0  0  0  0  0  0  0  0
   -2.0885   -5.9422    3.2617 H   0  0  0  0  0  0  0  0  0  0  0  0
   -0.1942   -4.1663    2.5080 H   0  0  0  0  0  0  0  0  0  0  0  0
   -1.7438   -6.1063    0.9397 H   0  0  0  0  0  0  0  0  0  0  0  0
   -3.1587   -2.8964   -0.0525 H   0  0  0  0  0  0  0  0  0  0  0  0
   -3.3006   -4.5358    0.5349 H   0  0  0  0  0  0  0  0  0  0  0  0
   -3.3340   -3.1989    1.6594 H   0  0  0  0  0  0  0  0  0  0  0  0
    0.2681   -4.2162   -0.3099 H   0  0  0  0  0  0  0  0  0  0  0  0
   -1.1866   -5.1329   -0.6208 H   0  0  0  0  0  0  0  0  0  0  0  0
   -1.0448   -3.4934   -1.2083 H   0  0  0  0  0  0  0  0  0  0  0  0
   -2.6740   -4.4377    7.7544 H   0  0  0  0  0  0  0  0  0  0  0  0
   -1.0152   -4.2341    7.2445 H   0  0  0  0  0  0  0  0  0  0  0  0
   -1.7468   -3.0701    8.3228 H   0  0  0  0  0  0  0  0  0  0  0  0
   -2.2093    0.3140    6.6398 H   0  0  0  0  0  0  0  0  0  0  0  0
   -1.2125   -0.8396    5.7868 H   0  0  0  0  0  0  0  0  0  0  0  0
   -2.8814    2.1066    5.3230 H   0  0  0  0  0  0  0  0  0  0  0  0
   -3.8146    1.7940    3.8792 H   0  0  0  0  0  0  0  0  0  0  0  0
   -4.3380    1.1459    5.4151 H   0  0  0  0  0  0  0  0  0  0  0  0
  1  2  1  0  0  0  0
  1 35  1  0  0  0  0
  1 36  1  0  0  0  0
  1 37  1  0  0  0  0
  2  3  1  0  0  0  0
  2 11  1  0  0  0  0
  2 38  1  0  0  0  0
  3  4  1  0  0  0  0
  3 39  1  0  0  0  0
  3 40  1  0  0  0  0
  4  5  1  0  0  0  0
  4 41  1  0  0  0  0
  4 42  1  0  0  0  0
  5  6  1  0  0  0  0
  5  7  1  0  0  0  0
  5 43  1  0  0  0  0
  6 44  1  0  0  0  0
  7  8  1  0  0  0  0
  7  9  1  0  0  0  0
  7 10  1  0  0  0  0
  8 45  1  0  0  0  0
  8 46  1  0  0  0  0
  8 47  1  0  0  0  0
  9 48  1  0  0  0  0
  9 49  1  0  0  0  0
  9 50  1  0  0  0  0
 10 51  1  0  0  0  0
 11 12  1  0  0  0  0
 11 33  1  0  0  0  0
 11 52  1  0  0  0  0
 12 13  1  0  0  0  0
 12 53  1  0  0  0  0
 12 54  1  0  0  0  0
 13 14  1  0  0  0  0
 13 55  1  0  0  0  0
 13 56  1  0  0  0  0
 14 15  1  0  0  0  0
 14 16  1  0  0  0  0
 14 33  1  0  0  0  0
 15 57  1  0  0  0  0
 15 58  1  0  0  0  0
 15 59  1  0  0  0  0
 16 17  1  0  0  0  0
 16 28  1  0  0  0  0
 16 60  1  0  0  0  0
 17 18  1  0  0  0  0
 17 61  1  0  0  0  0
 17 62  1  0  0  0  0
 18 19  2  0  0  0  0
 18 63  1  0  0  0  0
 19 20  1  0  0  0  0
 19 25  1  0  0  0  0
 20 21  1  0  0  0  0
 20 28  1  0  0  0  0
 20 64  1  0  0  0  0
 21 22  1  0  0  0  0
 21 65  1  0  0  0  0
 21 66  1  0  0  0  0
 22 23  1  0  0  0  0
 22 67  1  0  0  0  0
 22 68  1  0  0  0  0
 23 24  1  0  0  0  0
 23 25  1  0  0  0  0
 23 69  1  0  0  0  0
 24 70  1  0  0  0  0
 25 26  1  0  0  0  0
 25 27  1  0  0  0  0
 26 71  1  0  0  0  0
 26 72  1  0  0  0  0
 26 73  1  0  0  0  0
 27 74  1  0  0  0  0
 27 75  1  0  0  0  0
 27 76  1  0  0  0  0
 28 29  1  0  0  0  0
 28 30  1  0  0  0  0
 29 77  1  0  0  0  0
 29 78  1  0  0  0  0
 29 79  1  0  0  0  0
 30 31  2  0  0  0  0
 30 32  1  0  0  0  0
 32 33  1  0  0  0  0
 32 80  1  0  0  0  0
 32 81  1  0  0  0  0
 33 34  1  0  0  0  0
 34 82  1  0  0  0  0
 34 83  1  0  0  0  0
 34 84  1  0  0  0  0
M  END
