
 OpenBabel03132512093D

 84 87  0  0  0  0  0  0  0  0999 V2000
    1.0536    0.0431    0.0726 C   0  0  0  0  0  0  0  0  0  0  0  0
    0.5470    1.4757    0.1104 C   0  0  0  0  0  0  0  0  0  0  0  0
    1.0536    2.2247   -1.1113 C   0  0  0  0  0  0  0  0  0  0  0  0
    0.5469    1.5412   -2.3709 C   0  0  0  0  0  0  0  0  0  0  0  0
   -0.9731    1.5412   -2.3709 C   0  0  0  0  0  0  0  0  0  0  0  0
   -1.4464    2.8795   -2.3355 O   0  0  0  0  0  0  0  0  0  0  0  0
   -1.4797    0.8577   -3.6304 C   0  0  0  0  0  0  0  0  0  0  0  0
   -0.9731   -0.5749   -3.6683 C   0  0  0  0  0  0  0  0  0  0  0  0
   -2.9997    0.8577   -3.6304 C   0  0  0  0  0  0  0  0  0  0  0  0
   -1.0064    1.5574   -4.7718 O   0  0  0  0  0  0  0  0  0  0  0  0
   -0.9730    1.4757    0.1104 C   0  0  0  0  0  0  0  0  0  0  0  0
   -1.4797    2.9082    0.1482 C   0  0  0  0  0  0  0  0  0  0  0  0
   -0.9730    3.6573   -1.0735 C   0  0  0  0  0  0  0  0  0  0  0  0
   -1.4797    2.9738   -2.3330 C   0  0  0  0  0  0  0  0  0  0  0  0
   -2.4717    1.8746   -1.9890 C   0  0  0  0  0  0  0  0  0  0  0  0
   -2.1967    3.9721   -3.2436 C   0  0  0  0  0  0  0  0  0  0  0  0
   -2.5867    5.2110   -2.4336 C   0  0  0  0  0  0  0  0  0  0  0  0
   -1.4404    6.1895   -2.4292 C   0  0  0  0  0  0  0  0  0  0  0  0
   -0.8916    6.5515   -1.2959 C   0  0  0  0  0  0  0  0  0  0  0  0
    2.7910    4.0257   -1.4085 C   0  0  0  0  0  0  0  0  0  0  0  0
    2.4004    4.9135   -0.4809 C   0  0  0  0  0  0  0  0  0  0  0  0
    2.5201    6.3205   -0.8237 C   0  0  0  0  0  0  0  0  0  0  0  0
    1.3094    7.0635   -0.3210 C   0  0  0  0  0  0  0  0  0  0  0  0
    1.8542    8.2769    0.1762 O   0  0  0  0  0  0  0  0  0  0  0  0
    0.2540    7.5295   -1.2919 C   0  0  0  0  0  0  0  0  0  0  0  0
    0.8514    7.6158   -2.6869 C   0  0  0  0  0  0  0  0  0  0  0  0
   -0.2514    8.9000   -0.8716 C   0  0  0  0  0  0  0  0  0  0  0  0
    2.6946    2.5490   -1.1252 C   0  0  0  0  0  0  0  0  0  0  0  0
    3.6332    1.9578   -0.0860 C   0  0  0  0  0  0  0  0  0  0  0  0
    2.0746    1.8380   -2.3299 C   0  0  0  0  0  0  0  0  0  0  0  0
    2.6986    1.4995   -3.3840 O   0  0  0  0  0  0  0  0  0  0  0  0
    0.5888    1.5985   -2.0681 C   0  0  0  0  0  0  0  0  0  0  0  0
   -0.2413    2.4303   -3.0478 C   0  0  0  0  0  0  0  0  0  0  0  0
   -0.6722    1.5573   -4.2151 C   0  0  0  0  0  0  0  0  0  0  0  0
    0.6970   -0.4381   -0.8141 H   0  0  0  0  0  0  0  0  0  0  0  0
    0.6970   -0.4842    0.9326 H   0  0  0  0  0  0  0  0  0  0  0  0
    2.1236    0.0431    0.0726 H   0  0  0  0  0  0  0  0  0  0  0  0
    0.9036    1.9568    0.9971 H   0  0  0  0  0  0  0  0  0  0  0  0
    0.6970    3.2332   -1.0847 H   0  0  0  0  0  0  0  0  0  0  0  0
    2.1236    2.2247   -1.1113 H   0  0  0  0  0  0  0  0  0  0  0  0
    0.9036    2.0685   -3.2309 H   0  0  0  0  0  0  0  0  0  0  0  0
    0.9036    0.5327   -2.3975 H   0  0  0  0  0  0  0  0  0  0  0  0
   -1.3297    1.0139   -1.5108 H   0  0  0  0  0  0  0  0  0  0  0  0
   -1.1131    3.3292   -1.5069 H   0  0  0  0  0  0  0  0  0  0  0  0
   -1.3297   -1.1022   -2.8082 H   0  0  0  0  0  0  0  0  0  0  0  0
   -1.3297   -1.0561   -4.5549 H   0  0  0  0  0  0  0  0  0  0  0  0
    0.0969   -0.5749   -3.6683 H   0  0  0  0  0  0  0  0  0  0  0  0
   -3.3564    1.8661   -3.6038 H   0  0  0  0  0  0  0  0  0  0  0  0
   -3.3564    0.3765   -4.5171 H   0  0  0  0  0  0  0  0  0  0  0  0
   -3.3564    0.3304   -2.7704 H   0  0  0  0  0  0  0  0  0  0  0  0
   -1.3397    1.1078   -5.6004 H   0  0  0  0  0  0  0  0  0  0  0  0
   -1.3297    0.9945   -0.7763 H   0  0  0  0  0  0  0  0  0  0  0  0
   -2.5497    2.9082    0.1482 H   0  0  0  0  0  0  0  0  0  0  0  0
   -1.1230    3.3894    1.0349 H   0  0  0  0  0  0  0  0  0  0  0  0
   -1.3297    4.6657   -1.0468 H   0  0  0  0  0  0  0  0  0  0  0  0
    0.0970    3.6573   -1.0735 H   0  0  0  0  0  0  0  0  0  0  0  0
   -1.9945    1.1449   -1.3688 H   0  0  0  0  0  0  0  0  0  0  0  0
   -3.3047    2.2967   -1.4668 H   0  0  0  0  0  0  0  0  0  0  0  0
   -2.8140    1.4086   -2.8893 H   0  0  0  0  0  0  0  0  0  0  0  0
   -2.8265    4.0301   -4.1067 H   0  0  0  0  0  0  0  0  0  0  0  0
   -3.4461    5.6702   -2.8757 H   0  0  0  0  0  0  0  0  0  0  0  0
   -2.8138    4.9230   -1.4284 H   0  0  0  0  0  0  0  0  0  0  0  0
   -1.0747    6.5888   -3.3520 H   0  0  0  0  0  0  0  0  0  0  0  0
    3.6286    3.8504   -2.0507 H   0  0  0  0  0  0  0  0  0  0  0  0
    3.0699    4.7696    0.3413 H   0  0  0  0  0  0  0  0  0  0  0  0
    1.3708    4.7208   -0.2627 H   0  0  0  0  0  0  0  0  0  0  0  0
    2.5872    6.4247   -1.8865 H   0  0  0  0  0  0  0  0  0  0  0  0
    3.4007    6.7248   -0.3700 H   0  0  0  0  0  0  0  0  0  0  0  0
    0.8212    6.4197    0.3805 H   0  0  0  0  0  0  0  0  0  0  0  0
    2.2793    8.7835   -0.5739 H   0  0  0  0  0  0  0  0  0  0  0  0
    0.1025    7.9465   -3.3758 H   0  0  0  0  0  0  0  0  0  0  0  0
    1.6652    8.3106   -2.6841 H   0  0  0  0  0  0  0  0  0  0  0  0
    1.2072    6.6510   -2.9828 H   0  0  0  0  0  0  0  0  0  0  0  0
   -0.6720    8.8393    0.1104 H   0  0  0  0  0  0  0  0  0  0  0  0
    0.5623    9.5948   -0.8687 H   0  0  0  0  0  0  0  0  0  0  0  0
   -1.0004    9.2307   -1.5605 H   0  0  0  0  0  0  0  0  0  0  0  0
    4.6468    2.1164   -0.3896 H   0  0  0  0  0  0  0  0  0  0  0  0
    3.4650    2.4329    0.8579 H   0  0  0  0  0  0  0  0  0  0  0  0
    3.4483    0.9078    0.0053 H   0  0  0  0  0  0  0  0  0  0  0  0
    0.3653    0.5608   -2.2022 H   0  0  0  0  0  0  0  0  0  0  0  0
    0.3521    1.8872   -1.0653 H   0  0  0  0  0  0  0  0  0  0  0  0
   -1.2612    0.7412   -3.8518 H   0  0  0  0  0  0  0  0  0  0  0  0
   -1.2528    2.1390   -4.9002 H   0  0  0  0  0  0  0  0  0  0  0  0
    0.1941    1.1771   -4.7150 H   0  0  0  0  0  0  0  0  0  0  0  0
  1  2  1  0  0  0  0
  1 35  1  0  0  0  0
  1 36  1  0  0  0  0
  1 37  1  0  0  0  0
  2  3  1  0  0  0  0
  2 11  1  0  0  0  0
  2 38  1  0  0  0  0
  3  4  1  0  0  0  0
  3 39  1  0  0  0  0
  3 40  1  0  0  0  0
  4  5  1  0  0  0  0
  4 41  1  0  0  0  0
  4 42  1  0  0  0  0
  5  6  1  0  0  0  0
  5  7  1  0  0  0  0
  5 43  1  0  0  0  0
  6 44  1  0  0  0  0
  7  8  1  0  0  0  0
  7  9  1  0  0  0  0
  7 10  1  0  0  0  0
  8 45  1  0  0  0  0
  8 46  1  0  0  0  0
  8 47  1  0  0  0  0
  9 48  1  0  0  0  0
  9 49  1  0  0  0  0
  9 50  1  0  0  0  0
 10 51  1  0  0  0  0
 11 12  1  0  0  0  0
 11 33  1  0  0  0  0
 11 52  1  0  0  0  0
 12 13  1  0  0  0  0
 12 53  1  0  0  0  0
 12 54  1  0  0  0  0
 13 14  1  0  0  0  0
 13 55  1  0  0  0  0
 13 56  1  0  0  0  0
 14 15  1  0  0  0  0
 14 16  1  0  0  0  0
 14 33  1  0  0  0  0
 15 57  1  0  0  0  0
 15 58  1  0  0  0  0
 15 59  1  0  0  0  0
 16 17  1  0  0  0  0
 16 28  1  0  0  0  0
 16 60  1  0  0  0  0
 17 18  1  0  0  0  0
 17 61  1  0  0  0  0
 17 62  1  0  0  0  0
 18 19  2  0  0  0  0
 18 63  1  0  0  0  0
 19 20  1  0  0  0  0
 19 25  1  0  0  0  0
 20 21  1  0  0  0  0
 20 28  1  0  0  0  0
 20 64  1  0  0  0  0
 21 22  1  0  0  0  0
 21 65  1  0  0  0  0
 21 66  1  0  0  0  0
 22 23  1  0  0  0  0
 22 67  1  0  0  0  0
 22 68  1  0  0  0  0
 23 24  1  0  0  0  0
 23 25  1  0  0  0  0
 23 69  1  0  0  0  0
 24 70  1  0  0  0  0
 25 26  1  0  0  0  0
 25 27  1  0  0  0  0
 26 71  1  0  0  0  0
 26 72  1  0  0  0  0
 26 73  1  0  0  0  0
 27 74  1  0  0  0  0
 27 75  1  0  0  0  0
 27 76  1  0  0  0  0
 28 29  1  0  0  0  0
 28 30  1  0  0  0  0
 29 77  1  0  0  0  0
 29 78  1  0  0  0  0
 29 79  1  0  0  0  0
 30 31  2  0  0  0  0
 30 32  1  0  0  0  0
 32 33  1  0  0  0  0
 32 80  1  0  0  0  0
 32 81  1  0  0  0  0
 33 34  1  0  0  0  0
 34 82  1  0  0  0  0
 34 83  1  0  0  0  0
 34 84  1  0  0  0  0
M  END
