
 OpenBabel03132512093D

 81 84  0  0  0  0  0  0  0  0999 V2000
    0.9917   -0.0994   -0.0073 C   0  0  0  0  0  0  0  0  0  0  0  0
    0.4850    1.2317   -0.5383 C   0  0  0  0  0  0  0  0  0  0  0  0
    0.9917    1.4375   -1.9565 C   0  0  0  0  0  0  0  0  0  0  0  0
   -1.0350    1.2317   -0.5383 C   0  0  0  0  0  0  0  0  0  0  0  0
   -1.6704    2.0960    0.1432 O   0  0  0  0  0  0  0  0  0  0  0  0
   -1.7950    0.1980   -1.3533 C   0  0  0  0  0  0  0  0  0  0  0  0
   -1.4278    0.3405   -2.8214 C   0  0  0  0  0  0  0  0  0  0  0  0
    0.0666    0.1224   -2.9933 C   0  0  0  0  0  0  0  0  0  0  0  0
    0.4338   -1.2719   -2.5123 C   0  0  0  0  0  0  0  0  0  0  0  0
    0.4338    0.2649   -4.4614 C   0  0  0  0  0  0  0  0  0  0  0  0
    1.9282    0.0468   -4.6334 C   0  0  0  0  0  0  0  0  0  0  0  0
    2.2954   -1.3475   -4.1523 C   0  0  0  0  0  0  0  0  0  0  0  0
    1.5354   -2.3812   -4.9674 C   0  0  0  0  0  0  0  0  0  0  0  0
    0.8990   -3.3947   -4.0303 C   0  0  0  0  0  0  0  0  0  0  0  0
    0.4486   -1.6802   -5.7843 C   0  0  0  0  0  0  0  0  0  0  0  0
    0.2399   -0.2633   -5.2443 C   0  0  0  0  0  0  0  0  0  0  0  0
    1.2098    0.6769   -5.9128 C   0  0  0  0  0  0  0  0  0  0  0  0
    2.0783    1.3439   -5.1933 C   0  0  0  0  0  0  0  0  0  0  0  0
    5.7298   -1.1108   -5.9641 C   0  0  0  0  0  0  0  0  0  0  0  0
    5.5974    0.0026   -5.2265 C   0  0  0  0  0  0  0  0  0  0  0  0
    5.4459    1.2558   -5.9462 C   0  0  0  0  0  0  0  0  0  0  0  0
    4.4162    2.1102   -5.2534 C   0  0  0  0  0  0  0  0  0  0  0  0
    4.9728    3.4146   -5.3251 O   0  0  0  0  0  0  0  0  0  0  0  0
    3.0474    2.2834   -5.8618 C   0  0  0  0  0  0  0  0  0  0  0  0
    3.1106    1.9728   -7.3484 C   0  0  0  0  0  0  0  0  0  0  0  0
    2.5823    3.7168   -5.6631 C   0  0  0  0  0  0  0  0  0  0  0  0
    5.8894   -2.4477   -5.2877 C   0  0  0  0  0  0  0  0  0  0  0  0
    7.1858   -2.7217   -4.5430 C   0  0  0  0  0  0  0  0  0  0  0  0
    4.9656   -3.4696   -5.9535 C   0  0  0  0  0  0  0  0  0  0  0  0
    5.2154   -4.0917   -7.0333 O   0  0  0  0  0  0  0  0  0  0  0  0
    3.6961   -3.6257   -5.1182 C   0  0  0  0  0  0  0  0  0  0  0  0
    2.4970   -3.1041   -5.9123 C   0  0  0  0  0  0  0  0  0  0  0  0
    1.7789   -4.2709   -6.5706 C   0  0  0  0  0  0  0  0  0  0  0  0
    0.6350   -0.8916   -0.6319 H   0  0  0  0  0  0  0  0  0  0  0  0
    0.6350   -0.2442    0.9910 H   0  0  0  0  0  0  0  0  0  0  0  0
    2.0617   -0.0994   -0.0073 H   0  0  0  0  0  0  0  0  0  0  0  0
    0.8417    2.0239    0.0864 H   0  0  0  0  0  0  0  0  0  0  0  0
    0.6350    0.6453   -2.5811 H   0  0  0  0  0  0  0  0  0  0  0  0
    0.6350    2.3745   -2.3302 H   0  0  0  0  0  0  0  0  0  0  0  0
    2.0617    1.4375   -1.9565 H   0  0  0  0  0  0  0  0  0  0  0  0
   -1.5365   -0.7835   -1.0146 H   0  0  0  0  0  0  0  0  0  0  0  0
   -2.8470    0.3516   -1.2322 H   0  0  0  0  0  0  0  0  0  0  0  0
   -1.9628   -0.3871   -3.3951 H   0  0  0  0  0  0  0  0  0  0  0  0
   -1.6863    1.3221   -3.1600 H   0  0  0  0  0  0  0  0  0  0  0  0
    0.6016    0.8501   -2.4196 H   0  0  0  0  0  0  0  0  0  0  0  0
   -0.1012   -1.9996   -3.0860 H   0  0  0  0  0  0  0  0  0  0  0  0
    1.4858   -1.4254   -2.6333 H   0  0  0  0  0  0  0  0  0  0  0  0
    0.1753   -1.3722   -1.4788 H   0  0  0  0  0  0  0  0  0  0  0  0
   -0.1012   -0.4627   -5.0352 H   0  0  0  0  0  0  0  0  0  0  0  0
    2.1867    0.1472   -5.6668 H   0  0  0  0  0  0  0  0  0  0  0  0
    2.4632    0.7745   -4.0597 H   0  0  0  0  0  0  0  0  0  0  0  0
    3.3474   -1.5010   -4.2734 H   0  0  0  0  0  0  0  0  0  0  0  0
    2.0369   -1.4478   -3.1189 H   0  0  0  0  0  0  0  0  0  0  0  0
    1.6621   -3.8808   -3.4591 H   0  0  0  0  0  0  0  0  0  0  0  0
    0.2231   -2.8938   -3.3690 H   0  0  0  0  0  0  0  0  0  0  0  0
    0.3636   -4.1229   -4.6029 H   0  0  0  0  0  0  0  0  0  0  0  0
   -0.4442   -1.8681   -6.3432 H   0  0  0  0  0  0  0  0  0  0  0  0
   -0.7617    0.0526   -5.4491 H   0  0  0  0  0  0  0  0  0  0  0  0
    0.4071   -0.2561   -4.1875 H   0  0  0  0  0  0  0  0  0  0  0  0
    1.1892    0.7997   -6.9755 H   0  0  0  0  0  0  0  0  0  0  0  0
    6.3053   -1.4601   -6.7958 H   0  0  0  0  0  0  0  0  0  0  0  0
    6.5218    0.0964   -4.6960 H   0  0  0  0  0  0  0  0  0  0  0  0
    4.7332   -0.1209   -4.6077 H   0  0  0  0  0  0  0  0  0  0  0  0
    5.1284    1.0560   -6.9483 H   0  0  0  0  0  0  0  0  0  0  0  0
    6.3831    1.7716   -5.9657 H   0  0  0  0  0  0  0  0  0  0  0  0
    4.2707    1.6904   -4.2800 H   0  0  0  0  0  0  0  0  0  0  0  0
    5.0565    3.6891   -6.2830 H   0  0  0  0  0  0  0  0  0  0  0  0
    2.1393    2.0957   -7.7801 H   0  0  0  0  0  0  0  0  0  0  0  0
    3.7991    2.6402   -7.8232 H   0  0  0  0  0  0  0  0  0  0  0  0
    3.4381    0.9638   -7.4883 H   0  0  0  0  0  0  0  0  0  0  0  0
    2.5377    3.9355   -4.6166 H   0  0  0  0  0  0  0  0  0  0  0  0
    3.2707    4.3843   -6.1379 H   0  0  0  0  0  0  0  0  0  0  0  0
    1.6110    3.8397   -6.0948 H   0  0  0  0  0  0  0  0  0  0  0  0
    8.0089   -2.6551   -5.2234 H   0  0  0  0  0  0  0  0  0  0  0  0
    7.3085   -1.9997   -3.7629 H   0  0  0  0  0  0  0  0  0  0  0  0
    7.1526   -3.7033   -4.1184 H   0  0  0  0  0  0  0  0  0  0  0  0
    3.5473   -4.6592   -4.8845 H   0  0  0  0  0  0  0  0  0  0  0  0
    3.7945   -3.0659   -4.2116 H   0  0  0  0  0  0  0  0  0  0  0  0
    1.4396   -4.9514   -5.8178 H   0  0  0  0  0  0  0  0  0  0  0  0
    0.9401   -3.9061   -7.1258 H   0  0  0  0  0  0  0  0  0  0  0  0
    2.4515   -4.7765   -7.2315 H   0  0  0  0  0  0  0  0  0  0  0  0
  1  2  1  0  0  0  0
  1 34  1  0  0  0  0
  1 35  1  0  0  0  0
  1 36  1  0  0  0  0
  2  3  1  0  0  0  0
  2  4  1  0  0  0  0
  2 37  1  0  0  0  0
  3 38  1  0  0  0  0
  3 39  1  0  0  0  0
  3 40  1  0  0  0  0
  4  5  2  0  0  0  0
  4  6  1  0  0  0  0
  6  7  1  0  0  0  0
  6 41  1  0  0  0  0
  6 42  1  0  0  0  0
  7  8  1  0  0  0  0
  7 43  1  0  0  0  0
  7 44  1  0  0  0  0
  8  9  1  0  0  0  0
  8 10  1  0  0  0  0
  8 45  1  0  0  0  0
  9 46  1  0  0  0  0
  9 47  1  0  0  0  0
  9 48  1  0  0  0  0
 10 11  1  0  0  0  0
 10 32  1  0  0  0  0
 10 49  1  0  0  0  0
 11 12  1  0  0  0  0
 11 50  1  0  0  0  0
 11 51  1  0  0  0  0
 12 13  1  0  0  0  0
 12 52  1  0  0  0  0
 12 53  1  0  0  0  0
 13 14  1  0  0  0  0
 13 15  1  0  0  0  0
 13 32  1  0  0  0  0
 14 54  1  0  0  0  0
 14 55  1  0  0  0  0
 14 56  1  0  0  0  0
 15 16  1  0  0  0  0
 15 27  1  0  0  0  0
 15 57  1  0  0  0  0
 16 17  1  0  0  0  0
 16 58  1  0  0  0  0
 16 59  1  0  0  0  0
 17 18  2  0  0  0  0
 17 60  1  0  0  0  0
 18 19  1  0  0  0  0
 18 24  1  0  0  0  0
 19 20  1  0  0  0  0
 19 27  1  0  0  0  0
 19 61  1  0  0  0  0
 20 21  1  0  0  0  0
 20 62  1  0  0  0  0
 20 63  1  0  0  0  0
 21 22  1  0  0  0  0
 21 64  1  0  0  0  0
 21 65  1  0  0  0  0
 22 23  1  0  0  0  0
 22 24  1  0  0  0  0
 22 66  1  0  0  0  0
 23 67  1  0  0  0  0
 24 25  1  0  0  0  0
 24 26  1  0  0  0  0
 25 68  1  0  0  0  0
 25 69  1  0  0  0  0
 25 70  1  0  0  0  0
 26 71  1  0  0  0  0
 26 72  1  0  0  0  0
 26 73  1  0  0  0  0
 27 28  1  0  0  0  0
 27 29  1  0  0  0  0
 28 74  1  0  0  0  0
 28 75  1  0  0  0  0
 28 76  1  0  0  0  0
 29 30  2  0  0  0  0
 29 31  1  0  0  0  0
 31 32  1  0  0  0  0
 31 77  1  0  0  0  0
 31 78  1  0  0  0  0
 32 33  1  0  0  0  0
 33 79  1  0  0  0  0
 33 80  1  0  0  0  0
 33 81  1  0  0  0  0
M  END
