
 OpenBabel03132512093D

 48 49  0  0  0  0  0  0  0  0999 V2000
    0.9629    0.0460   -0.0807 C   0  0  0  0  0  0  0  0  0  0  0  0
    0.4896    1.3797   -0.1969 O   0  0  0  0  0  0  0  0  0  0  0  0
   -0.7920    1.6243   -0.5529 C   0  0  0  0  0  0  0  0  0  0  0  0
   -1.1835    2.9383   -0.6502 C   0  0  0  0  0  0  0  0  0  0  0  0
   -2.4730    3.2494   -1.0357 C   0  0  0  0  0  0  0  0  0  0  0  0
   -2.8950    4.7042   -1.1619 C   0  0  0  0  0  0  0  0  0  0  0  0
   -2.0034    5.6966   -0.8954 C   0  0  0  0  0  0  0  0  0  0  0  0
   -2.4254    7.1514   -1.0216 C   0  0  0  0  0  0  0  0  0  0  0  0
   -1.5925    8.0785   -0.7727 O   0  0  0  0  0  0  0  0  0  0  0  0
   -3.8435    7.4974   -1.4455 C   0  0  0  0  0  0  0  0  0  0  0  0
   -4.0990    6.9532   -2.7320 O   0  0  0  0  0  0  0  0  0  0  0  0
   -3.3038    7.3475   -3.8404 C   0  0  0  0  0  0  0  0  0  0  0  0
   -2.3634    8.1873   -3.6810 O   0  0  0  0  0  0  0  0  0  0  0  0
   -3.5774    6.7650   -5.2175 C   0  0  0  0  0  0  0  0  0  0  0  0
   -4.5841    5.8660   -5.3880 C   0  0  0  0  0  0  0  0  0  0  0  0
   -4.8576    5.2836   -6.7651 C   0  0  0  0  0  0  0  0  0  0  0  0
   -3.8200    4.8425   -7.5567 C   0  0  0  0  0  0  0  0  0  0  0  0
   -4.0653    4.1736   -8.7604 C   0  0  0  0  0  0  0  0  0  0  0  0
   -5.4102    3.9527   -9.1224 C   0  0  0  0  0  0  0  0  0  0  0  0
   -5.7420    3.2942  -10.2560 O   0  0  0  0  0  0  0  0  0  0  0  0
   -6.4367    4.4236   -8.3390 C   0  0  0  0  0  0  0  0  0  0  0  0
   -7.7839    4.2346   -8.7461 O   0  0  0  0  0  0  0  0  0  0  0  0
   -8.0701    3.5594   -9.9620 C   0  0  0  0  0  0  0  0  0  0  0  0
   -6.1590    5.0807   -7.1559 C   0  0  0  0  0  0  0  0  0  0  0  0
   -3.3758    2.2495   -1.3055 C   0  0  0  0  0  0  0  0  0  0  0  0
   -3.0037    0.9288   -1.1825 C   0  0  0  0  0  0  0  0  0  0  0  0
   -1.7063    0.5782   -0.7947 C   0  0  0  0  0  0  0  0  0  0  0  0
   -1.3238   -0.7816   -0.6497 O   0  0  0  0  0  0  0  0  0  0  0  0
    0.6062   -0.5324   -0.9072 H   0  0  0  0  0  0  0  0  0  0  0  0
    0.6062   -0.3807    0.8335 H   0  0  0  0  0  0  0  0  0  0  0  0
    2.0329    0.0460   -0.0807 H   0  0  0  0  0  0  0  0  0  0  0  0
   -0.4887    3.7209   -0.4271 H   0  0  0  0  0  0  0  0  0  0  0  0
   -3.8933    4.9477   -1.4603 H   0  0  0  0  0  0  0  0  0  0  0  0
   -1.0052    5.4530   -0.5970 H   0  0  0  0  0  0  0  0  0  0  0  0
   -4.5364    7.0874   -0.7408 H   0  0  0  0  0  0  0  0  0  0  0  0
   -3.9562    8.5609   -1.4792 H   0  0  0  0  0  0  0  0  0  0  0  0
   -2.9782    7.0621   -6.0527 H   0  0  0  0  0  0  0  0  0  0  0  0
   -5.1833    5.5689   -4.5528 H   0  0  0  0  0  0  0  0  0  0  0  0
   -2.8107    5.0143   -7.2458 H   0  0  0  0  0  0  0  0  0  0  0  0
   -3.2616    3.8415   -9.3839 H   0  0  0  0  0  0  0  0  0  0  0  0
   -5.0251    2.9356  -10.8540 H   0  0  0  0  0  0  0  0  0  0  0  0
   -7.6256    4.0901  -10.7779 H   0  0  0  0  0  0  0  0  0  0  0  0
   -7.6707    2.5676   -9.9218 H   0  0  0  0  0  0  0  0  0  0  0  0
   -9.1298    3.5117  -10.1026 H   0  0  0  0  0  0  0  0  0  0  0  0
   -6.9609    5.4330   -6.5413 H   0  0  0  0  0  0  0  0  0  0  0  0
   -4.3706    2.4973   -1.6119 H   0  0  0  0  0  0  0  0  0  0  0  0
   -3.7184    0.1592   -1.3869 H   0  0  0  0  0  0  0  0  0  0  0  0
   -0.3913   -1.0117   -0.3715 H   0  0  0  0  0  0  0  0  0  0  0  0
  1  2  1  0  0  0  0
  1 29  1  0  0  0  0
  1 30  1  0  0  0  0
  1 31  1  0  0  0  0
  2  3  1  0  0  0  0
  3  4  1  0  0  0  0
  3 27  2  0  0  0  0
  4  5  2  0  0  0  0
  4 32  1  0  0  0  0
  5  6  1  0  0  0  0
  5 25  1  0  0  0  0
  6  7  2  0  0  0  0
  6 33  1  0  0  0  0
  7  8  1  0  0  0  0
  7 34  1  0  0  0  0
  8  9  2  0  0  0  0
  8 10  1  0  0  0  0
 10 11  1  0  0  0  0
 10 35  1  0  0  0  0
 10 36  1  0  0  0  0
 11 12  1  0  0  0  0
 12 13  2  0  0  0  0
 12 14  1  0  0  0  0
 14 15  2  0  0  0  0
 14 37  1  0  0  0  0
 15 16  1  0  0  0  0
 15 38  1  0  0  0  0
 16 17  1  0  0  0  0
 16 24  2  0  0  0  0
 17 18  2  0  0  0  0
 17 39  1  0  0  0  0
 18 19  1  0  0  0  0
 18 40  1  0  0  0  0
 19 20  1  0  0  0  0
 19 21  2  0  0  0  0
 20 41  1  0  0  0  0
 21 22  1  0  0  0  0
 21 24  1  0  0  0  0
 22 23  1  0  0  0  0
 23 42  1  0  0  0  0
 23 43  1  0  0  0  0
 23 44  1  0  0  0  0
 24 45  1  0  0  0  0
 25 26  2  0  0  0  0
 25 46  1  0  0  0  0
 26 27  1  0  0  0  0
 26 47  1  0  0  0  0
 27 28  1  0  0  0  0
 28 48  1  0  0  0  0
M  END
