
 OpenBabel03132512093D

 75 74  0  0  0  0  0  0  0  0999 V2000
    1.0163    0.0554    0.0817 C   0  0  0  0  0  0  0  0  0  0  0  0
    0.5097    1.3842    0.6182 C   0  0  0  0  0  0  0  0  0  0  0  0
    1.0163    2.5133   -0.2644 C   0  0  0  0  0  0  0  0  0  0  0  0
    0.5097    2.3135   -1.6835 C   0  0  0  0  0  0  0  0  0  0  0  0
   -1.0103    2.3135   -1.6835 C   0  0  0  0  0  0  0  0  0  0  0  0
   -1.5170    3.6423   -1.1470 C   0  0  0  0  0  0  0  0  0  0  0  0
   -1.0103    4.7714   -2.0296 C   0  0  0  0  0  0  0  0  0  0  0  0
   -1.5170    4.5716   -3.4486 C   0  0  0  0  0  0  0  0  0  0  0  0
   -3.0370    4.5716   -3.4486 C   0  0  0  0  0  0  0  0  0  0  0  0
   -3.5437    5.9004   -2.9121 C   0  0  0  0  0  0  0  0  0  0  0  0
   -3.0370    7.0295   -3.7947 C   0  0  0  0  0  0  0  0  0  0  0  0
   -3.5437    6.8297   -5.2138 C   0  0  0  0  0  0  0  0  0  0  0  0
   -5.0637    6.8297   -5.2138 C   0  0  0  0  0  0  0  0  0  0  0  0
   -5.5704    8.1586   -4.6773 C   0  0  0  0  0  0  0  0  0  0  0  0
   -6.3525    8.9531   -5.4568 C   0  0  0  0  0  0  0  0  0  0  0  0
   -6.8592   10.2820   -4.9203 C   0  0  0  0  0  0  0  0  0  0  0  0
   -6.3858   11.3367   -5.7448 O   0  0  0  0  0  0  0  0  0  0  0  0
   -8.3792   10.2820   -4.9203 C   0  0  0  0  0  0  0  0  0  0  0  0
   -8.8858    9.1529   -4.0377 C   0  0  0  0  0  0  0  0  0  0  0  0
   -8.4125    9.3396   -2.7120 O   0  0  0  0  0  0  0  0  0  0  0  0
   -8.8692   11.5671   -4.4014 N   0  0  0  0  0  0  0  0  0  0  0  0
   -9.7143   12.4257   -5.2438 C   0  0  0  0  0  0  0  0  0  0  0  0
  -10.1379   13.5368   -4.7952 O   0  0  0  0  0  0  0  0  0  0  0  0
  -10.0815   11.9846   -6.6512 C   0  0  0  0  0  0  0  0  0  0  0  0
   -8.8148   11.7988   -7.4707 C   0  0  0  0  0  0  0  0  0  0  0  0
   -7.9409   10.7393   -6.8194 C   0  0  0  0  0  0  0  0  0  0  0  0
   -8.7009    9.4244   -6.7563 C   0  0  0  0  0  0  0  0  0  0  0  0
   -9.0681    8.9833   -8.1638 C   0  0  0  0  0  0  0  0  0  0  0  0
    0.6597   -0.0853   -0.9173 H   0  0  0  0  0  0  0  0  0  0  0  0
    0.6597   -0.7394    0.7029 H   0  0  0  0  0  0  0  0  0  0  0  0
    2.0863    0.0554    0.0817 H   0  0  0  0  0  0  0  0  0  0  0  0
   -0.5603    1.3842    0.6182 H   0  0  0  0  0  0  0  0  0  0  0  0
    0.8663    1.5249    1.6171 H   0  0  0  0  0  0  0  0  0  0  0  0
    0.6597    3.4487    0.1133 H   0  0  0  0  0  0  0  0  0  0  0  0
    2.0863    2.5133   -0.2644 H   0  0  0  0  0  0  0  0  0  0  0  0
    0.8663    3.1083   -2.3048 H   0  0  0  0  0  0  0  0  0  0  0  0
    0.8663    1.3780   -2.0612 H   0  0  0  0  0  0  0  0  0  0  0  0
   -1.3670    2.1728   -2.6824 H   0  0  0  0  0  0  0  0  0  0  0  0
   -1.3670    1.5187   -1.0622 H   0  0  0  0  0  0  0  0  0  0  0  0
   -2.5870    3.6423   -1.1470 H   0  0  0  0  0  0  0  0  0  0  0  0
   -1.1603    3.7830   -0.1480 H   0  0  0  0  0  0  0  0  0  0  0  0
   -1.3670    5.7068   -1.6519 H   0  0  0  0  0  0  0  0  0  0  0  0
    0.0597    4.7714   -2.0296 H   0  0  0  0  0  0  0  0  0  0  0  0
   -1.1604    5.3664   -4.0699 H   0  0  0  0  0  0  0  0  0  0  0  0
   -1.1603    3.6361   -3.8263 H   0  0  0  0  0  0  0  0  0  0  0  0
   -3.3937    4.4309   -4.4476 H   0  0  0  0  0  0  0  0  0  0  0  0
   -3.3937    3.7768   -2.8273 H   0  0  0  0  0  0  0  0  0  0  0  0
   -4.6137    5.9004   -2.9121 H   0  0  0  0  0  0  0  0  0  0  0  0
   -3.1870    6.0411   -1.9132 H   0  0  0  0  0  0  0  0  0  0  0  0
   -3.3937    7.9649   -3.4170 H   0  0  0  0  0  0  0  0  0  0  0  0
   -1.9670    7.0295   -3.7947 H   0  0  0  0  0  0  0  0  0  0  0  0
   -3.1870    7.6245   -5.8350 H   0  0  0  0  0  0  0  0  0  0  0  0
   -3.1870    5.8943   -5.5914 H   0  0  0  0  0  0  0  0  0  0  0  0
   -5.4204    6.6891   -6.2127 H   0  0  0  0  0  0  0  0  0  0  0  0
   -5.4204    6.0349   -4.5925 H   0  0  0  0  0  0  0  0  0  0  0  0
   -5.3119    8.4691   -3.6865 H   0  0  0  0  0  0  0  0  0  0  0  0
   -6.6110    8.6426   -6.4476 H   0  0  0  0  0  0  0  0  0  0  0  0
   -6.5025   10.4226   -3.9213 H   0  0  0  0  0  0  0  0  0  0  0  0
   -5.3858   11.3367   -5.7448 H   0  0  0  0  0  0  0  0  0  0  0  0
   -8.7358   10.1413   -5.9192 H   0  0  0  0  0  0  0  0  0  0  0  0
   -9.9558    9.1529   -4.0377 H   0  0  0  0  0  0  0  0  0  0  0  0
   -8.5292    8.2175   -4.4154 H   0  0  0  0  0  0  0  0  0  0  0  0
   -7.4125    9.3396   -2.7120 H   0  0  0  0  0  0  0  0  0  0  0  0
   -8.6227   11.8631   -3.4569 H   0  0  0  0  0  0  0  0  0  0  0  0
  -10.6165   11.0590   -6.6068 H   0  0  0  0  0  0  0  0  0  0  0  0
  -10.6966   12.7305   -7.1097 H   0  0  0  0  0  0  0  0  0  0  0  0
   -9.0733   11.4883   -8.4614 H   0  0  0  0  0  0  0  0  0  0  0  0
   -8.2798   12.7244   -7.5151 H   0  0  0  0  0  0  0  0  0  0  0  0
   -7.0493   10.6085   -7.3963 H   0  0  0  0  0  0  0  0  0  0  0  0
   -7.6825   11.0497   -5.8286 H   0  0  0  0  0  0  0  0  0  0  0  0
   -8.0858    8.6785   -6.2979 H   0  0  0  0  0  0  0  0  0  0  0  0
   -9.5926    9.5552   -6.1795 H   0  0  0  0  0  0  0  0  0  0  0  0
   -8.1765    8.8525   -8.7406 H   0  0  0  0  0  0  0  0  0  0  0  0
   -9.6031    8.0578   -8.1193 H   0  0  0  0  0  0  0  0  0  0  0  0
   -9.6833    9.7292   -8.6222 H   0  0  0  0  0  0  0  0  0  0  0  0
  1  2  1  0  0  0  0
  1 29  1  0  0  0  0
  1 30  1  0  0  0  0
  1 31  1  0  0  0  0
  2  3  1  0  0  0  0
  2 32  1  0  0  0  0
  2 33  1  0  0  0  0
  3  4  1  0  0  0  0
  3 34  1  0  0  0  0
  3 35  1  0  0  0  0
  4  5  1  0  0  0  0
  4 36  1  0  0  0  0
  4 37  1  0  0  0  0
  5  6  1  0  0  0  0
  5 38  1  0  0  0  0
  5 39  1  0  0  0  0
  6  7  1  0  0  0  0
  6 40  1  0  0  0  0
  6 41  1  0  0  0  0
  7  8  1  0  0  0  0
  7 42  1  0  0  0  0
  7 43  1  0  0  0  0
  8  9  1  0  0  0  0
  8 44  1  0  0  0  0
  8 45  1  0  0  0  0
  9 10  1  0  0  0  0
  9 46  1  0  0  0  0
  9 47  1  0  0  0  0
 10 11  1  0  0  0  0
 10 48  1  0  0  0  0
 10 49  1  0  0  0  0
 11 12  1  0  0  0  0
 11 50  1  0  0  0  0
 11 51  1  0  0  0  0
 12 13  1  0  0  0  0
 12 52  1  0  0  0  0
 12 53  1  0  0  0  0
 13 14  1  0  0  0  0
 13 54  1  0  0  0  0
 13 55  1  0  0  0  0
 14 15  2  0  0  0  0
 14 56  1  0  0  0  0
 15 16  1  0  0  0  0
 15 57  1  0  0  0  0
 16 17  1  0  0  0  0
 16 18  1  0  0  0  0
 16 58  1  0  0  0  0
 17 59  1  0  0  0  0
 18 19  1  0  0  0  0
 18 21  1  0  0  0  0
 18 60  1  0  0  0  0
 19 20  1  0  0  0  0
 19 61  1  0  0  0  0
 19 62  1  0  0  0  0
 20 63  1  0  0  0  0
 21 22  1  0  0  0  0
 21 64  1  0  0  0  0
 22 23  2  0  0  0  0
 22 24  1  0  0  0  0
 24 25  1  0  0  0  0
 24 65  1  0  0  0  0
 24 66  1  0  0  0  0
 25 26  1  0  0  0  0
 25 67  1  0  0  0  0
 25 68  1  0  0  0  0
 26 27  1  0  0  0  0
 26 69  1  0  0  0  0
 26 70  1  0  0  0  0
 27 28  1  0  0  0  0
 27 71  1  0  0  0  0
 27 72  1  0  0  0  0
 28 73  1  0  0  0  0
 28 74  1  0  0  0  0
 28 75  1  0  0  0  0
M  END
