
 OpenBabel03132512083D

 45 50  0  0  0  0  0  0  0  0999 V2000
    0.9264   -0.0517   -0.0437 C   0  0  0  0  0  0  0  0  0  0  0  0
    0.4364   -1.3711    0.3806 N   0  0  0  0  0  0  0  0  0  0  0  0
    1.0476   -2.3706   -0.4351 C   0  0  0  0  0  0  0  0  0  0  0  0
    0.9325   -3.6670   -0.0444 C   0  0  0  0  0  0  0  0  0  0  0  0
    0.5690   -4.0102    1.2455 C   0  0  0  0  0  0  0  0  0  0  0  0
    0.4653   -5.3446    1.5992 C   0  0  0  0  0  0  0  0  0  0  0  0
    0.7308   -6.3323    0.6718 C   0  0  0  0  0  0  0  0  0  0  0  0
    1.0934   -5.9944   -0.6217 C   0  0  0  0  0  0  0  0  0  0  0  0
    1.1944   -4.6660   -0.9802 C   0  0  0  0  0  0  0  0  0  0  0  0
    1.6015   -4.5570   -2.4336 O   0  0  0  0  0  0  0  0  0  0  0  0
    2.1601   -5.9479   -2.8021 C   0  0  0  0  0  0  0  0  0  0  0  0
    1.4248   -6.8726   -1.8086 O   0  0  0  0  0  0  0  0  0  0  0  0
    0.2727   -2.9581    2.2848 C   0  0  0  0  0  0  0  0  0  0  0  0
    0.9037   -3.3642    3.6066 C   0  0  0  0  0  0  0  0  0  0  0  0
    0.6252   -2.3760    4.5875 O   0  0  0  0  0  0  0  0  0  0  0  0
    0.3286   -4.6982    4.0539 C   0  0  0  0  0  0  0  0  0  0  0  0
    0.6266   -5.7561    3.0039 C   0  0  0  0  0  0  0  0  0  0  0  0
    0.6344   -5.4088    1.6242 C   0  0  0  0  0  0  0  0  0  0  0  0
    0.4462   -6.4125    0.6600 C   0  0  0  0  0  0  0  0  0  0  0  0
    0.5387   -7.6650    0.9979 C   0  0  0  0  0  0  0  0  0  0  0  0
    0.8366   -8.0153    2.3215 C   0  0  0  0  0  0  0  0  0  0  0  0
    0.7271   -7.0421    3.3445 C   0  0  0  0  0  0  0  0  0  0  0  0
    0.8528   -1.6139    1.8378 C   0  0  0  0  0  0  0  0  0  0  0  0
    0.3375   -8.6788    0.0242 O   0  0  0  0  0  0  0  0  0  0  0  0
    0.4382  -10.0466    0.3922 C   0  0  0  0  0  0  0  0  0  0  0  0
    0.1549   -6.0596   -0.6843 O   0  0  0  0  0  0  0  0  0  0  0  0
    0.5698    0.6960    0.6335 H   0  0  0  0  0  0  0  0  0  0  0  0
    0.5698    0.1609   -1.0299 H   0  0  0  0  0  0  0  0  0  0  0  0
    1.9964   -0.0517   -0.0437 H   0  0  0  0  0  0  0  0  0  0  0  0
    0.5169   -2.3215   -1.3630 H   0  0  0  0  0  0  0  0  0  0  0  0
    2.0922   -2.1448   -0.4870 H   0  0  0  0  0  0  0  0  0  0  0  0
    0.1783   -5.6114    2.5949 H   0  0  0  0  0  0  0  0  0  0  0  0
    0.6563   -7.3620    0.9530 H   0  0  0  0  0  0  0  0  0  0  0  0
    3.2262   -6.0119   -2.7376 H   0  0  0  0  0  0  0  0  0  0  0  0
    1.9265   -6.2034   -3.8145 H   0  0  0  0  0  0  0  0  0  0  0  0
   -0.7865   -2.8658    2.4057 H   0  0  0  0  0  0  0  0  0  0  0  0
    1.9626   -3.4558    3.4831 H   0  0  0  0  0  0  0  0  0  0  0  0
    1.0036   -1.4983    4.2933 H   0  0  0  0  0  0  0  0  0  0  0  0
    0.7728   -4.9842    4.9844 H   0  0  0  0  0  0  0  0  0  0  0  0
   -0.7303   -4.6067    4.1774 H   0  0  0  0  0  0  0  0  0  0  0  0
    0.7822   -4.3925    1.3240 H   0  0  0  0  0  0  0  0  0  0  0  0
    1.1450   -9.0122    2.5580 H   0  0  0  0  0  0  0  0  0  0  0  0
    0.4711   -0.8305    2.4587 H   0  0  0  0  0  0  0  0  0  0  0  0
   -0.2862  -10.2669    1.1482 H   0  0  0  0  0  0  0  0  0  0  0  0
    0.2572  -10.6609   -0.4650 H   0  0  0  0  0  0  0  0  0  0  0  0
  1  2  1  0  0  0  0
  1 27  1  0  0  0  0
  1 28  1  0  0  0  0
  1 29  1  0  0  0  0
  2  3  1  0  0  0  0
  2 23  1  0  0  0  0
  3  4  1  0  0  0  0
  3 30  1  0  0  0  0
  3 31  1  0  0  0  0
  4  5  1  0  0  0  0
  4  9  2  0  0  0  0
  5  6  2  0  0  0  0
  5 13  1  0  0  0  0
  6  7  1  0  0  0  0
  6 32  1  0  0  0  0
  7  8  2  0  0  0  0
  7 33  1  0  0  0  0
  8  9  1  0  0  0  0
  8 12  1  0  0  0  0
  9 10  1  0  0  0  0
 10 11  1  0  0  0  0
 11 12  1  0  0  0  0
 11 34  1  0  0  0  0
 11 35  1  0  0  0  0
 13 14  1  0  0  0  0
 13 23  1  0  0  0  0
 13 36  1  0  0  0  0
 14 15  1  0  0  0  0
 14 16  1  0  0  0  0
 14 37  1  0  0  0  0
 15 38  1  0  0  0  0
 16 17  1  0  0  0  0
 16 39  1  0  0  0  0
 16 40  1  0  0  0  0
 17 18  1  0  0  0  0
 17 22  2  0  0  0  0
 18 19  2  0  0  0  0
 18 41  1  0  0  0  0
 19 20  1  0  0  0  0
 19 26  1  0  0  0  0
 20 21  2  0  0  0  0
 20 24  1  0  0  0  0
 21 22  1  0  0  0  0
 21 42  1  0  0  0  0
 22 23  1  0  0  0  0
 23 43  1  0  0  0  0
 24 25  1  0  0  0  0
 25 26  1  0  0  0  0
 25 44  1  0  0  0  0
 25 45  1  0  0  0  0
M  END
