
 OpenBabel03132514253D

 40 44  0  0  0  0  0  0  0  0999 V2000
    1.0758   -0.0164   -0.0631 C   0  0  0  0  0  0  0  0  0  0  0  0
    0.5691   -1.3763    0.3891 C   0  0  0  0  0  0  0  0  0  0  0  0
   -0.4204   -1.6536    1.2839 C   0  0  0  0  0  0  0  0  0  0  0  0
   -0.4661   -3.0020    1.4238 N   0  0  0  0  0  0  0  0  0  0  0  0
   -1.2133   -4.4163    2.1884 C   0  0  0  0  0  0  0  0  0  0  0  0
   -2.3511   -4.5196    3.1910 C   0  0  0  0  0  0  0  0  0  0  0  0
   -2.9665   -3.3924    3.6400 C   0  0  0  0  0  0  0  0  0  0  0  0
   -2.5162   -2.0298    3.1390 C   0  0  0  0  0  0  0  0  0  0  0  0
   -1.5649   -1.9435    2.3007 O   0  0  0  0  0  0  0  0  0  0  0  0
   -3.1812   -0.8118    3.6241 N   0  0  0  0  0  0  0  0  0  0  0  0
   -4.2815   -0.9117    4.5937 C   0  0  0  0  0  0  0  0  0  0  0  0
   -4.1878   -1.7136    5.6486 C   0  0  0  0  0  0  0  0  0  0  0  0
   -5.1668   -1.8153    6.5247 C   0  0  0  0  0  0  0  0  0  0  0  0
   -6.2911   -1.1293    6.4078 C   0  0  0  0  0  0  0  0  0  0  0  0
   -6.4655   -0.3079    5.3898 C   0  0  0  0  0  0  0  0  0  0  0  0
   -7.6232    0.4424    5.2178 C   0  0  0  0  0  0  0  0  0  0  0  0
   -7.4861    1.5956    4.4084 C   0  0  0  0  0  0  0  0  0  0  0  0
   -6.6095    1.5275    3.3498 C   0  0  0  0  0  0  0  0  0  0  0  0
   -5.6247    0.6749    3.3663 C   0  0  0  0  0  0  0  0  0  0  0  0
   -5.4462   -0.1706    4.4264 C   0  0  0  0  0  0  0  0  0  0  0  0
   -0.2181   -5.6812    1.4183 C   0  0  0  0  0  0  0  0  0  0  0  0
   -0.2890   -7.1886    1.5998 C   0  0  0  0  0  0  0  0  0  0  0  0
    0.6219   -4.9563    0.6262 N   0  0  0  0  0  0  0  0  0  0  0  0
    0.5196   -3.5579    0.6053 C   0  0  0  0  0  0  0  0  0  0  0  0
    1.1221   -2.4807   -0.0076 S   0  0  0  0  0  0  0  0  0  0  0  0
    0.7191    0.7379    0.6067 H   0  0  0  0  0  0  0  0  0  0  0  0
    0.7191    0.1865   -1.0513 H   0  0  0  0  0  0  0  0  0  0  0  0
    2.1458   -0.0164   -0.0631 H   0  0  0  0  0  0  0  0  0  0  0  0
   -1.0443   -0.9415    1.7825 H   0  0  0  0  0  0  0  0  0  0  0  0
   -2.6681   -5.4788    3.5437 H   0  0  0  0  0  0  0  0  0  0  0  0
   -2.8790    0.1026    3.2879 H   0  0  0  0  0  0  0  0  0  0  0  0
   -5.0480   -2.4751    7.3586 H   0  0  0  0  0  0  0  0  0  0  0  0
   -7.0622   -1.2405    7.1413 H   0  0  0  0  0  0  0  0  0  0  0  0
   -8.5546    0.1668    5.6667 H   0  0  0  0  0  0  0  0  0  0  0  0
   -8.0428    2.4864    4.6120 H   0  0  0  0  0  0  0  0  0  0  0  0
   -6.7374    2.1775    2.5095 H   0  0  0  0  0  0  0  0  0  0  0  0
   -4.9465    0.6355    2.5396 H   0  0  0  0  0  0  0  0  0  0  0  0
   -0.1110   -7.4330    2.6262 H   0  0  0  0  0  0  0  0  0  0  0  0
   -1.2593   -7.5371    1.3133 H   0  0  0  0  0  0  0  0  0  0  0  0
    0.4533   -7.6569    0.9878 H   0  0  0  0  0  0  0  0  0  0  0  0
  1  2  1  0  0  0  0
  1 26  1  0  0  0  0
  1 27  1  0  0  0  0
  1 28  1  0  0  0  0
  2  3  2  0  0  0  0
  2 25  1  0  0  0  0
  3  4  1  0  0  0  0
  3 29  1  0  0  0  0
  4  5  1  0  0  0  0
  4 24  1  0  0  0  0
  5  6  1  0  0  0  0
  5 21  2  0  0  0  0
  6  7  2  0  0  0  0
  6 30  1  0  0  0  0
  7  8  1  0  0  0  0
  7 12  1  0  0  0  0
  8  9  2  0  0  0  0
  8 10  1  0  0  0  0
 10 11  1  0  0  0  0
 10 31  1  0  0  0  0
 11 12  1  0  0  0  0
 11 20  2  0  0  0  0
 12 13  2  0  0  0  0
 13 14  1  0  0  0  0
 13 32  1  0  0  0  0
 14 15  2  0  0  0  0
 14 33  1  0  0  0  0
 15 16  1  0  0  0  0
 15 20  1  0  0  0  0
 16 17  2  0  0  0  0
 16 34  1  0  0  0  0
 17 18  1  0  0  0  0
 17 35  1  0  0  0  0
 18 19  2  0  0  0  0
 18 36  1  0  0  0  0
 19 20  1  0  0  0  0
 19 37  1  0  0  0  0
 21 22  1  0  0  0  0
 21 23  1  0  0  0  0
 22 38  1  0  0  0  0
 22 39  1  0  0  0  0
 22 40  1  0  0  0  0
 23 24  2  0  0  0  0
 24 25  1  0  0  0  0
M  END
