
 OpenBabel03132512093D

 36 39  0  0  0  0  0  0  0  0999 V2000
    0.9324    0.0583   -0.0452 N   0  0  0  0  0  0  0  0  0  0  0  0
    0.4424   -0.8398   -1.1007 C   0  0  0  0  0  0  0  0  0  0  0  0
    0.9491   -2.2494   -0.8422 C   0  0  0  0  0  0  0  0  0  0  0  0
    0.3812   -3.2979   -1.5470 C   0  0  0  0  0  0  0  0  0  0  0  0
    0.6883   -4.5751   -1.0210 C   0  0  0  0  0  0  0  0  0  0  0  0
    1.6834   -4.8229   -0.1888 C   0  0  0  0  0  0  0  0  0  0  0  0
    2.1587   -6.1906    0.0646 N   0  0  0  0  0  0  0  0  0  0  0  0
    2.6737   -7.0362   -0.8046 C   0  0  0  0  0  0  0  0  0  0  0  0
    2.8553   -6.7520   -2.2867 C   0  0  0  0  0  0  0  0  0  0  0  0
    2.2628   -7.6905   -3.6832 N   0  0  0  0  0  0  0  0  0  0  0  0
    2.9985   -6.7649   -4.9512 O   0  0  0  0  0  0  0  0  0  0  0  0
    3.6615   -5.7867   -4.2773 N   0  0  0  0  0  0  0  0  0  0  0  0
    3.5975   -5.7561   -2.9069 C   0  0  0  0  0  0  0  0  0  0  0  0
    4.2847   -4.7146   -2.1297 N   0  0  0  0  0  0  0  0  0  0  0  0
    3.0111   -8.1689   -0.2059 N   0  0  0  0  0  0  0  0  0  0  0  0
    2.7147   -8.0712    1.0892 C   0  0  0  0  0  0  0  0  0  0  0  0
    2.8362   -8.9231    2.2070 C   0  0  0  0  0  0  0  0  0  0  0  0
    2.4223   -8.4904    3.4178 N   0  0  0  0  0  0  0  0  0  0  0  0
    1.8836   -7.2540    3.5856 C   0  0  0  0  0  0  0  0  0  0  0  0
    1.7470   -6.3931    2.5525 C   0  0  0  0  0  0  0  0  0  0  0  0
    2.1554   -6.7756    1.2733 C   0  0  0  0  0  0  0  0  0  0  0  0
    2.2476   -3.7388    0.4243 C   0  0  0  0  0  0  0  0  0  0  0  0
    1.9036   -2.4605    0.0565 C   0  0  0  0  0  0  0  0  0  0  0  0
    0.5924   -0.2644    0.8607 H   0  0  0  0  0  0  0  0  0  0  0  0
    1.9524    0.0583   -0.0452 H   0  0  0  0  0  0  0  0  0  0  0  0
   -0.6276   -0.8398   -1.1007 H   0  0  0  0  0  0  0  0  0  0  0  0
    0.7991   -0.5013   -2.0510 H   0  0  0  0  0  0  0  0  0  0  0  0
   -0.2339   -3.1551   -2.4107 H   0  0  0  0  0  0  0  0  0  0  0  0
    0.0714   -5.3973   -1.3182 H   0  0  0  0  0  0  0  0  0  0  0  0
    4.8240   -3.9933   -2.6086 H   0  0  0  0  0  0  0  0  0  0  0  0
    4.2221   -4.7131   -1.1117 H   0  0  0  0  0  0  0  0  0  0  0  0
    3.2524   -9.9026    2.0968 H   0  0  0  0  0  0  0  0  0  0  0  0
    1.5595   -6.9544    4.5603 H   0  0  0  0  0  0  0  0  0  0  0  0
    1.3275   -5.4221    2.7144 H   0  0  0  0  0  0  0  0  0  0  0  0
    2.9675   -3.8882    1.2017 H   0  0  0  0  0  0  0  0  0  0  0  0
    2.4094   -1.6274    0.4982 H   0  0  0  0  0  0  0  0  0  0  0  0
  1  2  1  0  0  0  0
  1 24  1  0  0  0  0
  1 25  1  0  0  0  0
  2  3  1  0  0  0  0
  2 26  1  0  0  0  0
  2 27  1  0  0  0  0
  3  4  1  0  0  0  0
  3 23  2  0  0  0  0
  4  5  2  0  0  0  0
  4 28  1  0  0  0  0
  5  6  1  0  0  0  0
  5 29  1  0  0  0  0
  6  7  1  0  0  0  0
  6 22  2  0  0  0  0
  7  8  1  0  0  0  0
  7 21  1  0  0  0  0
  8  9  1  0  0  0  0
  8 15  2  0  0  0  0
  9 10  2  0  0  0  0
  9 13  1  0  0  0  0
 10 11  1  0  0  0  0
 11 12  1  0  0  0  0
 12 13  2  0  0  0  0
 13 14  1  0  0  0  0
 14 30  1  0  0  0  0
 14 31  1  0  0  0  0
 15 16  1  0  0  0  0
 16 17  1  0  0  0  0
 16 21  2  0  0  0  0
 17 18  2  0  0  0  0
 17 32  1  0  0  0  0
 18 19  1  0  0  0  0
 19 20  2  0  0  0  0
 19 33  1  0  0  0  0
 20 21  1  0  0  0  0
 20 34  1  0  0  0  0
 22 23  1  0  0  0  0
 22 35  1  0  0  0  0
 23 36  1  0  0  0  0
M  END
