
 OpenBabel03132512093D

 43 46  0  0  0  0  0  0  0  0999 V2000
    0.9528    0.0826   -0.0308 C   0  0  0  0  0  0  0  0  0  0  0  0
    0.4461    0.5164   -1.3967 C   0  0  0  0  0  0  0  0  0  0  0  0
    0.5431    1.8448   -1.7456 C   0  0  0  0  0  0  0  0  0  0  0  0
    0.1668    2.2578   -3.0186 C   0  0  0  0  0  0  0  0  0  0  0  0
    0.1416    3.4827   -3.6536 N   0  0  0  0  0  0  0  0  0  0  0  0
   -0.3385    3.3090   -4.9552 C   0  0  0  0  0  0  0  0  0  0  0  0
   -0.6133    2.0556   -5.1688 C   0  0  0  0  0  0  0  0  0  0  0  0
   -1.1564    1.4664   -6.4605 C   0  0  0  0  0  0  0  0  0  0  0  0
   -1.3822    2.2212   -7.4576 O   0  0  0  0  0  0  0  0  0  0  0  0
   -1.4115    0.0725   -6.5529 O   0  0  0  0  0  0  0  0  0  0  0  0
   -0.3072    1.3139   -3.9466 C   0  0  0  0  0  0  0  0  0  0  0  0
   -0.3970   -0.0333   -3.5838 C   0  0  0  0  0  0  0  0  0  0  0  0
   -0.0178   -0.4254   -2.3153 C   0  0  0  0  0  0  0  0  0  0  0  0
   -0.1063   -1.8899   -1.9181 C   0  0  0  0  0  0  0  0  0  0  0  0
   -0.9372   -2.2545   -0.8223 C   0  0  0  0  0  0  0  0  0  0  0  0
   -0.8135   -3.5356   -0.2602 C   0  0  0  0  0  0  0  0  0  0  0  0
   -0.1571   -4.4632   -0.8929 C   0  0  0  0  0  0  0  0  0  0  0  0
   -0.0142   -5.8459   -0.2779 C   0  0  0  0  0  0  0  0  0  0  0  0
   -1.2999   -5.6346    0.5049 C   0  0  0  0  0  0  0  0  0  0  0  0
   -1.1561   -4.5068    1.3557 O   0  0  0  0  0  0  0  0  0  0  0  0
    0.5399   -7.0465   -1.0476 C   0  0  0  0  0  0  0  0  0  0  0  0
    1.4091   -6.3385   -0.0053 C   0  0  0  0  0  0  0  0  0  0  0  0
    0.4186   -4.1895   -2.1407 C   0  0  0  0  0  0  0  0  0  0  0  0
    0.5604   -2.8463   -2.5665 C   0  0  0  0  0  0  0  0  0  0  0  0
    0.5961   -0.9028    0.1854 H   0  0  0  0  0  0  0  0  0  0  0  0
    0.5961    0.7625    0.7144 H   0  0  0  0  0  0  0  0  0  0  0  0
    2.0228    0.0826   -0.0308 H   0  0  0  0  0  0  0  0  0  0  0  0
    0.9080    2.5589   -1.0373 H   0  0  0  0  0  0  0  0  0  0  0  0
    0.4270    4.3705   -3.2405 H   0  0  0  0  0  0  0  0  0  0  0  0
   -0.4622    4.0938   -5.6720 H   0  0  0  0  0  0  0  0  0  0  0  0
   -1.7688   -0.3151   -7.4027 H   0  0  0  0  0  0  0  0  0  0  0  0
   -0.7576   -0.7565   -4.2851 H   0  0  0  0  0  0  0  0  0  0  0  0
   -1.6498   -1.5592   -0.4301 H   0  0  0  0  0  0  0  0  0  0  0  0
   -1.2594   -3.7486    0.6889 H   0  0  0  0  0  0  0  0  0  0  0  0
   -2.1085   -5.4673   -0.1756 H   0  0  0  0  0  0  0  0  0  0  0  0
   -1.5047   -6.5030    1.0955 H   0  0  0  0  0  0  0  0  0  0  0  0
   -0.4005   -4.6631    1.9917 H   0  0  0  0  0  0  0  0  0  0  0  0
    0.2210   -8.0553   -1.2076 H   0  0  0  0  0  0  0  0  0  0  0  0
    0.7708   -6.9545   -2.0884 H   0  0  0  0  0  0  0  0  0  0  0  0
    2.3796   -5.8879   -0.0092 H   0  0  0  0  0  0  0  0  0  0  0  0
    1.6389   -6.8252    0.9195 H   0  0  0  0  0  0  0  0  0  0  0  0
    0.7491   -4.9907   -2.7683 H   0  0  0  0  0  0  0  0  0  0  0  0
    1.1922   -2.6025   -3.3949 H   0  0  0  0  0  0  0  0  0  0  0  0
  1  2  1  0  0  0  0
  1 25  1  0  0  0  0
  1 26  1  0  0  0  0
  1 27  1  0  0  0  0
  2  3  1  0  0  0  0
  2 13  2  0  0  0  0
  3  4  2  0  0  0  0
  3 28  1  0  0  0  0
  4  5  1  0  0  0  0
  4 11  1  0  0  0  0
  5  6  1  0  0  0  0
  5 29  1  0  0  0  0
  6  7  2  0  0  0  0
  6 30  1  0  0  0  0
  7  8  1  0  0  0  0
  7 11  1  0  0  0  0
  8  9  2  0  0  0  0
  8 10  1  0  0  0  0
 10 31  1  0  0  0  0
 11 12  2  0  0  0  0
 12 13  1  0  0  0  0
 12 32  1  0  0  0  0
 13 14  1  0  0  0  0
 14 15  1  0  0  0  0
 14 24  2  0  0  0  0
 15 16  2  0  0  0  0
 15 33  1  0  0  0  0
 16 17  1  0  0  0  0
 16 34  1  0  0  0  0
 17 18  1  0  0  0  0
 17 23  2  0  0  0  0
 18 19  1  0  0  0  0
 18 21  1  0  0  0  0
 18 22  1  0  0  0  0
 19 20  1  0  0  0  0
 19 35  1  0  0  0  0
 19 36  1  0  0  0  0
 20 37  1  0  0  0  0
 21 22  1  0  0  0  0
 21 38  1  0  0  0  0
 21 39  1  0  0  0  0
 22 40  1  0  0  0  0
 22 41  1  0  0  0  0
 23 24  1  0  0  0  0
 23 42  1  0  0  0  0
 24 43  1  0  0  0  0
M  END
