
 OpenBabel03132514253D

 55 58  0  0  0  0  0  0  0  0999 V2000
    0.9437   -0.0324   -0.0760 C   0  0  0  0  0  0  0  0  0  0  0  0
    0.4537    0.3890   -1.3963 N   0  0  0  0  0  0  0  0  0  0  0  0
   -0.1078    1.7682   -1.7497 C   0  0  0  0  0  0  0  0  0  0  0  0
    0.6996    2.3642   -2.7674 C   0  0  0  0  0  0  0  0  0  0  0  0
    0.7389    1.6237   -3.9886 N   0  0  0  0  0  0  0  0  0  0  0  0
   -0.6248    1.4784   -4.5178 C   0  0  0  0  0  0  0  0  0  0  0  0
   -1.4852    0.7402   -3.5053 C   0  0  0  0  0  0  0  0  0  0  0  0
   -1.5272    1.5280   -2.2060 C   0  0  0  0  0  0  0  0  0  0  0  0
   -2.0799    2.8131   -2.4493 O   0  0  0  0  0  0  0  0  0  0  0  0
   -1.4488    3.6957   -3.3654 C   0  0  0  0  0  0  0  0  0  0  0  0
   -1.1245    5.0066   -3.0573 C   0  0  0  0  0  0  0  0  0  0  0  0
   -0.6350    5.7498   -4.1574 C   0  0  0  0  0  0  0  0  0  0  0  0
   -0.1737    5.2180   -5.2747 C   0  0  0  0  0  0  0  0  0  0  0  0
    0.6428    6.0271   -6.2692 C   0  0  0  0  0  0  0  0  0  0  0  0
    1.8944    6.5352   -5.9627 C   0  0  0  0  0  0  0  0  0  0  0  0
    2.4192    7.4013   -6.9508 C   0  0  0  0  0  0  0  0  0  0  0  0
    3.5021    8.2720   -6.5720 C   0  0  0  0  0  0  0  0  0  0  0  0
    4.0421    8.2394   -5.1515 C   0  0  0  0  0  0  0  0  0  0  0  0
    4.9977    9.0077   -4.8172 O   0  0  0  0  0  0  0  0  0  0  0  0
    3.4789    7.3505   -4.1980 O   0  0  0  0  0  0  0  0  0  0  0  0
    4.0733    9.1735   -7.5390 C   0  0  0  0  0  0  0  0  0  0  0  0
    2.7223    8.0935   -9.1983 N   0  0  0  0  0  0  0  0  0  0  0  0
    1.9852    7.4668   -8.1964 C   0  0  0  0  0  0  0  0  0  0  0  0
    0.7734    6.8864   -8.4494 C   0  0  0  0  0  0  0  0  0  0  0  0
    0.1367    6.1339   -7.4922 C   0  0  0  0  0  0  0  0  0  0  0  0
   -1.3804    5.2946   -7.8952 Cl  0  0  0  0  0  0  0  0  0  0  0  0
   -0.4700    3.9005   -5.4888 C   0  0  0  0  0  0  0  0  0  0  0  0
   -1.0661    3.1422   -4.5102 C   0  0  0  0  0  0  0  0  0  0  0  0
    1.3346    0.2386   -3.7258 C   0  0  0  0  0  0  0  0  0  0  0  0
    0.4960   -0.4751   -2.6609 C   0  0  0  0  0  0  0  0  0  0  0  0
   -0.0729   -1.6026   -2.8033 O   0  0  0  0  0  0  0  0  0  0  0  0
    0.5870   -1.0181    0.1388 H   0  0  0  0  0  0  0  0  0  0  0  0
    0.5870    0.6465    0.6702 H   0  0  0  0  0  0  0  0  0  0  0  0
    2.0137   -0.0324   -0.0760 H   0  0  0  0  0  0  0  0  0  0  0  0
   -1.1115    1.6645   -2.1056 H   0  0  0  0  0  0  0  0  0  0  0  0
   -0.1008    2.3901   -0.8790 H   0  0  0  0  0  0  0  0  0  0  0  0
    1.7007    2.3915   -2.3906 H   0  0  0  0  0  0  0  0  0  0  0  0
    0.3105    3.3385   -2.9775 H   0  0  0  0  0  0  0  0  0  0  0  0
   -1.0414    2.4468   -4.7012 H   0  0  0  0  0  0  0  0  0  0  0  0
   -0.5953    0.9238   -5.4324 H   0  0  0  0  0  0  0  0  0  0  0  0
   -2.4779    0.6344   -3.8904 H   0  0  0  0  0  0  0  0  0  0  0  0
   -1.0687   -0.2282   -3.3219 H   0  0  0  0  0  0  0  0  0  0  0  0
   -2.1328    1.0083   -1.4932 H   0  0  0  0  0  0  0  0  0  0  0  0
   -0.5345    1.6338   -1.8208 H   0  0  0  0  0  0  0  0  0  0  0  0
   -1.2341    5.4197   -2.0764 H   0  0  0  0  0  0  0  0  0  0  0  0
   -0.6389    6.8168   -4.0785 H   0  0  0  0  0  0  0  0  0  0  0  0
    2.4169    6.2946   -5.0605 H   0  0  0  0  0  0  0  0  0  0  0  0
    3.8342    7.3291   -3.2635 H   0  0  0  0  0  0  0  0  0  0  0  0
    4.8778    9.8203   -7.2575 H   0  0  0  0  0  0  0  0  0  0  0  0
    2.3608    8.1282  -10.1515 H   0  0  0  0  0  0  0  0  0  0  0  0
    0.3142    7.0201   -9.4066 H   0  0  0  0  0  0  0  0  0  0  0  0
   -0.2342    3.4535   -6.4319 H   0  0  0  0  0  0  0  0  0  0  0  0
   -1.2235    2.0963   -4.6721 H   0  0  0  0  0  0  0  0  0  0  0  0
    2.3428    0.3397   -3.3820 H   0  0  0  0  0  0  0  0  0  0  0  0
    1.3259   -0.3325   -4.6306 H   0  0  0  0  0  0  0  0  0  0  0  0
  1  2  1  0  0  0  0
  1 32  1  0  0  0  0
  1 33  1  0  0  0  0
  1 34  1  0  0  0  0
  2  3  1  0  0  0  0
  2 30  1  0  0  0  0
  3  4  1  0  0  0  0
  3 35  1  0  0  0  0
  3 36  1  0  0  0  0
  4  5  1  0  0  0  0
  4 37  1  0  0  0  0
  4 38  1  0  0  0  0
  5  6  1  0  0  0  0
  5 29  1  0  0  0  0
  6  7  1  0  0  0  0
  6 39  1  0  0  0  0
  6 40  1  0  0  0  0
  7  8  1  0  0  0  0
  7 41  1  0  0  0  0
  7 42  1  0  0  0  0
  8  9  1  0  0  0  0
  8 43  1  0  0  0  0
  8 44  1  0  0  0  0
  9 10  1  0  0  0  0
 10 11  1  0  0  0  0
 10 28  2  0  0  0  0
 11 12  2  0  0  0  0
 11 45  1  0  0  0  0
 12 13  1  0  0  0  0
 12 46  1  0  0  0  0
 13 14  1  0  0  0  0
 13 27  2  0  0  0  0
 14 15  1  0  0  0  0
 14 25  2  0  0  0  0
 15 16  2  0  0  0  0
 15 47  1  0  0  0  0
 16 17  1  0  0  0  0
 16 23  1  0  0  0  0
 17 18  1  0  0  0  0
 17 21  2  0  0  0  0
 18 19  2  0  0  0  0
 18 20  1  0  0  0  0
 20 48  1  0  0  0  0
 21 22  1  0  0  0  0
 21 49  1  0  0  0  0
 22 23  1  0  0  0  0
 22 50  1  0  0  0  0
 23 24  2  0  0  0  0
 24 25  1  0  0  0  0
 24 51  1  0  0  0  0
 25 26  1  0  0  0  0
 27 28  1  0  0  0  0
 27 52  1  0  0  0  0
 28 53  1  0  0  0  0
 29 30  1  0  0  0  0
 29 54  1  0  0  0  0
 29 55  1  0  0  0  0
 30 31  2  0  0  0  0
M  END
