
 OpenBabel03132514253D

 63 67  0  0  0  0  0  0  0  0999 V2000
    2.4920    0.0040   -0.0140 C   0  0  0  0  0  0  0  0  0  0  0  0
    0.9910   -0.0050    0.0130 C   0  0  0  0  0  0  0  0  0  0  0  0
    0.2580   -1.1970    0.0060 C   0  0  0  0  0  0  0  0  0  0  0  0
   -1.1080   -1.2020    0.0010 C   0  0  0  0  0  0  0  0  0  0  0  0
   -1.7990    0.0100   -0.0130 C   0  0  0  0  0  0  0  0  0  0  0  0
   -3.2687    0.0138   -0.0439 N   0  0  0  0  0  0  0  0  0  0  0  0
   -3.9888    0.5417   -0.9694 N   0  0  0  0  0  0  0  0  0  0  0  0
   -5.2528    0.3641   -0.6971 C   0  0  0  0  0  0  0  0  0  0  0  0
   -6.4291    0.8255   -1.5420 C   0  0  0  0  0  0  0  0  0  0  0  0
   -6.3864    2.3380   -1.6868 C   0  0  0  0  0  0  0  0  0  0  0  0
   -6.3486    0.1824   -2.9169 C   0  0  0  0  0  0  0  0  0  0  0  0
   -7.7285    0.4176   -0.8671 C   0  0  0  0  0  0  0  0  0  0  0  0
   -5.3229   -0.3076    0.4778 C   0  0  0  0  0  0  0  0  0  0  0  0
   -4.0410   -0.5181    0.8637 C   0  0  0  0  0  0  0  0  0  0  0  0
   -3.6016   -1.2166    2.0802 N   0  0  0  0  0  0  0  0  0  0  0  0
   -2.1670   -1.3666    2.3640 C   0  0  0  0  0  0  0  0  0  0  0  0
   -1.7871   -1.9705    3.4158 O   0  0  0  0  0  0  0  0  0  0  0  0
   -1.1720   -0.8181    1.4314 N   0  0  0  0  0  0  0  0  0  0  0  0
   -1.6114   -0.1196    0.2149 C   0  0  0  0  0  0  0  0  0  0  0  0
   -1.0493   -0.5574   -0.9729 C   0  0  0  0  0  0  0  0  0  0  0  0
   -1.3904    0.2345   -2.0948 C   0  0  0  0  0  0  0  0  0  0  0  0
   -2.4061    1.0775   -2.1354 C   0  0  0  0  0  0  0  0  0  0  0  0
   -2.9117    1.6205   -3.4045 N   0  0  0  0  0  0  0  0  0  0  0  0
   -2.9781    2.9203   -3.7822 C   0  0  0  0  0  0  0  0  0  0  0  0
   -3.6392    2.9312   -4.9652 N   0  0  0  0  0  0  0  0  0  0  0  0
   -3.9451    1.6953   -5.2519 C   0  0  0  0  0  0  0  0  0  0  0  0
   -4.6548    1.2682   -6.4300 C   0  0  0  0  0  0  0  0  0  0  0  0
   -5.0940    2.2591   -7.4231 N   0  0  0  0  0  0  0  0  0  0  0  0
   -4.9250   -0.0837   -6.6285 N   0  0  0  0  0  0  0  0  0  0  0  0
   -5.6114   -0.4967   -7.7679 C   0  0  0  0  0  0  0  0  0  0  0  0
   -3.6736   -0.4669   -4.2988 N   0  0  0  0  0  0  0  0  0  0  0  0
   -3.5164    0.9168   -4.3223 C   0  0  0  0  0  0  0  0  0  0  0  0
   -2.9622    1.4182   -0.9337 C   0  0  0  0  0  0  0  0  0  0  0  0
   -2.5873    0.7809    0.2244 C   0  0  0  0  0  0  0  0  0  0  0  0
   -1.1090    1.2060    0.0020 C   0  0  0  0  0  0  0  0  0  0  0  0
    0.2750    1.1840    0.0050 C   0  0  0  0  0  0  0  0  0  0  0  0
    2.8673   -0.5130    0.8443 H   0  0  0  0  0  0  0  0  0  0  0  0
    2.8357   -0.4833   -0.9024 H   0  0  0  0  0  0  0  0  0  0  0  0
    2.8429    1.0148   -0.0032 H   0  0  0  0  0  0  0  0  0  0  0  0
    0.7818   -2.1300    0.0045 H   0  0  0  0  0  0  0  0  0  0  0  0
   -1.6438   -2.1281    0.0078 H   0  0  0  0  0  0  0  0  0  0  0  0
   -5.4717    2.6252   -2.1619 H   0  0  0  0  0  0  0  0  0  0  0  0
   -7.2145    2.6629   -2.2815 H   0  0  0  0  0  0  0  0  0  0  0  0
   -6.4431    2.7907   -0.7189 H   0  0  0  0  0  0  0  0  0  0  0  0
   -6.3786   -0.8823   -2.8149 H   0  0  0  0  0  0  0  0  0  0  0  0
   -7.1766    0.5073   -3.5116 H   0  0  0  0  0  0  0  0  0  0  0  0
   -5.4338    0.4696   -3.3919 H   0  0  0  0  0  0  0  0  0  0  0  0
   -7.7585   -0.6471   -0.7651 H   0  0  0  0  0  0  0  0  0  0  0  0
   -7.7852    0.8703    0.1008 H   0  0  0  0  0  0  0  0  0  0  0  0
   -8.5566    0.7424   -1.4618 H   0  0  0  0  0  0  0  0  0  0  0  0
   -6.2094   -0.6100    0.9951 H   0  0  0  0  0  0  0  0  0  0  0  0
   -4.2920   -1.5972    2.7274 H   0  0  0  0  0  0  0  0  0  0  0  0
   -0.1766   -0.9222    1.6283 H   0  0  0  0  0  0  0  0  0  0  0  0
   -0.4147   -1.4165   -1.0364 H   0  0  0  0  0  0  0  0  0  0  0  0
   -0.7831    0.1441   -2.9711 H   0  0  0  0  0  0  0  0  0  0  0  0
   -2.5881    3.7653   -3.2543 H   0  0  0  0  0  0  0  0  0  0  0  0
   -5.5967    1.9566   -8.2575 H   0  0  0  0  0  0  0  0  0  0  0  0
   -4.8962    3.2491   -7.2777 H   0  0  0  0  0  0  0  0  0  0  0  0
   -5.8189   -1.5352   -7.9204 H   0  0  0  0  0  0  0  0  0  0  0  0
   -3.6999    2.1922   -0.8945 H   0  0  0  0  0  0  0  0  0  0  0  0
   -3.0862    1.0123    1.1422 H   0  0  0  0  0  0  0  0  0  0  0  0
   -1.6368    2.1367    0.0112 H   0  0  0  0  0  0  0  0  0  0  0  0
    0.8088    2.1113    0.0010 H   0  0  0  0  0  0  0  0  0  0  0  0
  1  2  1  0  0  0  0
  1 37  1  0  0  0  0
  1 38  1  0  0  0  0
  1 39  1  0  0  0  0
  2  3  1  0  0  0  0
  2 36  2  0  0  0  0
  3  4  2  0  0  0  0
  3 40  1  0  0  0  0
  4  5  1  0  0  0  0
  4 41  1  0  0  0  0
  5  6  1  0  0  0  0
  5 35  2  0  0  0  0
  6  7  1  0  0  0  0
  6 14  1  0  0  0  0
  7  8  2  0  0  0  0
  8  9  1  0  0  0  0
  8 13  1  0  0  0  0
  9 10  1  0  0  0  0
  9 11  1  0  0  0  0
  9 12  1  0  0  0  0
 10 42  1  0  0  0  0
 10 43  1  0  0  0  0
 10 44  1  0  0  0  0
 11 45  1  0  0  0  0
 11 46  1  0  0  0  0
 11 47  1  0  0  0  0
 12 48  1  0  0  0  0
 12 49  1  0  0  0  0
 12 50  1  0  0  0  0
 13 14  2  0  0  0  0
 13 51  1  0  0  0  0
 14 15  1  0  0  0  0
 15 16  1  0  0  0  0
 15 52  1  0  0  0  0
 16 17  2  0  0  0  0
 16 18  1  0  0  0  0
 18 19  1  0  0  0  0
 18 53  1  0  0  0  0
 19 20  1  0  0  0  0
 19 34  2  0  0  0  0
 20 21  2  0  0  0  0
 20 54  1  0  0  0  0
 21 22  1  0  0  0  0
 21 55  1  0  0  0  0
 22 23  1  0  0  0  0
 22 33  2  0  0  0  0
 23 24  1  0  0  0  0
 23 32  1  0  0  0  0
 24 25  2  0  0  0  0
 24 56  1  0  0  0  0
 25 26  1  0  0  0  0
 26 27  1  0  0  0  0
 26 32  2  0  0  0  0
 27 28  1  0  0  0  0
 27 29  2  0  0  0  0
 28 57  1  0  0  0  0
 28 58  1  0  0  0  0
 29 30  1  0  0  0  0
 30 31  2  0  0  0  0
 30 59  1  0  0  0  0
 31 32  1  0  0  0  0
 33 34  1  0  0  0  0
 33 60  1  0  0  0  0
 34 61  1  0  0  0  0
 35 36  1  0  0  0  0
 35 62  1  0  0  0  0
 36 63  1  0  0  0  0
M  END
