
 OpenBabel03132512083D

 44 46  0  0  0  0  0  0  0  0999 V2000
    1.0935   -0.0295    0.0196 C   0  0  0  0  0  0  0  0  0  0  0  0
    0.6202    1.3059   -0.0759 O   0  0  0  0  0  0  0  0  0  0  0  0
    0.9632    2.2540    0.9240 C   0  0  0  0  0  0  0  0  0  0  0  0
   -0.0566    2.9117    1.4843 N   0  0  0  0  0  0  0  0  0  0  0  0
    0.2053    3.6688    2.5613 C   0  0  0  0  0  0  0  0  0  0  0  0
   -0.9000    4.4020    3.1950 N   0  0  0  0  0  0  0  0  0  0  0  0
   -2.2604    4.2978    2.6478 C   0  0  0  0  0  0  0  0  0  0  0  0
   -0.6449    5.2395    4.3759 C   0  0  0  0  0  0  0  0  0  0  0  0
   -0.0854    4.3783    5.4965 C   0  0  0  0  0  0  0  0  0  0  0  0
    1.1290    3.7779    5.0707 O   0  0  0  0  0  0  0  0  0  0  0  0
    1.4727    3.7856    3.0971 C   0  0  0  0  0  0  0  0  0  0  0  0
    2.5384    3.1134    2.4937 C   0  0  0  0  0  0  0  0  0  0  0  0
    2.2598    2.3344    1.3778 C   0  0  0  0  0  0  0  0  0  0  0  0
    3.3724    1.5809    0.6674 C   0  0  0  0  0  0  0  0  0  0  0  0
    3.6439    1.7784   -0.6771 C   0  0  0  0  0  0  0  0  0  0  0  0
    4.6510    1.0125   -1.2912 C   0  0  0  0  0  0  0  0  0  0  0  0
    5.1421    0.8876   -2.6393 C   0  0  0  0  0  0  0  0  0  0  0  0
    4.7219    1.7148   -3.8432 C   0  0  0  0  0  0  0  0  0  0  0  0
    5.2436    1.4921   -4.9806 O   0  0  0  0  0  0  0  0  0  0  0  0
    3.7465    2.7364   -3.6973 O   0  0  0  0  0  0  0  0  0  0  0  0
    6.0677   -0.1301   -2.6195 C   0  0  0  0  0  0  0  0  0  0  0  0
    6.2169   -0.6171   -1.3482 N   0  0  0  0  0  0  0  0  0  0  0  0
    5.3463    0.0485   -0.5162 C   0  0  0  0  0  0  0  0  0  0  0  0
    5.0898   -0.1593    0.8434 C   0  0  0  0  0  0  0  0  0  0  0  0
    4.0994    0.6257    1.3994 C   0  0  0  0  0  0  0  0  0  0  0  0
    3.6990    0.4054    3.0841 Cl  0  0  0  0  0  0  0  0  0  0  0  0
    0.7368   -0.5950   -0.8158 H   0  0  0  0  0  0  0  0  0  0  0  0
    0.7368   -0.4703    0.9270 H   0  0  0  0  0  0  0  0  0  0  0  0
    2.1635   -0.0295    0.0196 H   0  0  0  0  0  0  0  0  0  0  0  0
   -2.9154    3.8989    3.3940 H   0  0  0  0  0  0  0  0  0  0  0  0
   -2.6024    5.2685    2.3551 H   0  0  0  0  0  0  0  0  0  0  0  0
   -2.2536    3.6502    1.7961 H   0  0  0  0  0  0  0  0  0  0  0  0
    0.0619    6.0028    4.1258 H   0  0  0  0  0  0  0  0  0  0  0  0
   -1.5600    5.6919    4.6967 H   0  0  0  0  0  0  0  0  0  0  0  0
    0.1003    4.9878    6.3560 H   0  0  0  0  0  0  0  0  0  0  0  0
   -0.7922    3.6149    5.7465 H   0  0  0  0  0  0  0  0  0  0  0  0
    0.9554    3.2082    4.2674 H   0  0  0  0  0  0  0  0  0  0  0  0
    1.6371    4.3861    3.9673 H   0  0  0  0  0  0  0  0  0  0  0  0
    3.5339    3.1957    2.8774 H   0  0  0  0  0  0  0  0  0  0  0  0
    3.0949    2.5038   -1.2404 H   0  0  0  0  0  0  0  0  0  0  0  0
    3.4700    3.2806   -4.4894 H   0  0  0  0  0  0  0  0  0  0  0  0
    6.5966   -0.4906   -3.4769 H   0  0  0  0  0  0  0  0  0  0  0  0
    6.8658   -1.3514   -1.0651 H   0  0  0  0  0  0  0  0  0  0  0  0
    5.6290   -0.8832    1.4180 H   0  0  0  0  0  0  0  0  0  0  0  0
  1  2  1  0  0  0  0
  1 27  1  0  0  0  0
  1 28  1  0  0  0  0
  1 29  1  0  0  0  0
  2  3  1  0  0  0  0
  3  4  1  0  0  0  0
  3 13  2  0  0  0  0
  4  5  2  0  0  0  0
  5  6  1  0  0  0  0
  5 11  1  0  0  0  0
  6  7  1  0  0  0  0
  6  8  1  0  0  0  0
  7 30  1  0  0  0  0
  7 31  1  0  0  0  0
  7 32  1  0  0  0  0
  8  9  1  0  0  0  0
  8 33  1  0  0  0  0
  8 34  1  0  0  0  0
  9 10  1  0  0  0  0
  9 35  1  0  0  0  0
  9 36  1  0  0  0  0
 10 37  1  0  0  0  0
 11 12  2  0  0  0  0
 11 38  1  0  0  0  0
 12 13  1  0  0  0  0
 12 39  1  0  0  0  0
 13 14  1  0  0  0  0
 14 15  1  0  0  0  0
 14 25  2  0  0  0  0
 15 16  2  0  0  0  0
 15 40  1  0  0  0  0
 16 17  1  0  0  0  0
 16 23  1  0  0  0  0
 17 18  1  0  0  0  0
 17 21  2  0  0  0  0
 18 19  2  0  0  0  0
 18 20  1  0  0  0  0
 20 41  1  0  0  0  0
 21 22  1  0  0  0  0
 21 42  1  0  0  0  0
 22 23  1  0  0  0  0
 22 43  1  0  0  0  0
 23 24  2  0  0  0  0
 24 25  1  0  0  0  0
 24 44  1  0  0  0  0
 25 26  1  0  0  0  0
M  END
