
 OpenBabel03132514253D

 35 38  0  0  0  0  0  0  0  0999 V2000
    1.0741   -0.0671    0.0038 O   0  0  0  0  0  0  0  0  0  0  0  0
    2.3450   -0.0671    0.0038 C   0  0  0  0  0  0  0  0  0  0  0  0
    3.0550   -1.2435   -0.3546 O   0  0  0  0  0  0  0  0  0  0  0  0
    3.1050    1.1921    0.3875 C   0  0  0  0  0  0  0  0  0  0  0  0
    4.1069    1.6692   -0.2914 N   0  0  0  0  0  0  0  0  0  0  0  0
    4.5680    2.8515    0.2955 N   0  0  0  0  0  0  0  0  0  0  0  0
    3.8031    3.1256    1.4108 C   0  0  0  0  0  0  0  0  0  0  0  0
    3.8133    4.1472    2.3536 C   0  0  0  0  0  0  0  0  0  0  0  0
    2.8928    4.1477    3.3775 C   0  0  0  0  0  0  0  0  0  0  0  0
    2.9026    5.4663    4.5731 Cl  0  0  0  0  0  0  0  0  0  0  0  0
    1.9525    3.1228    3.4853 C   0  0  0  0  0  0  0  0  0  0  0  0
    0.9518    3.1315    4.6294 C   0  0  0  0  0  0  0  0  0  0  0  0
    0.1001    4.1477    4.7771 C   0  0  0  0  0  0  0  0  0  0  0  0
   -0.8223    4.1184    5.8599 C   0  0  0  0  0  0  0  0  0  0  0  0
   -0.6292    3.1999    6.9048 C   0  0  0  0  0  0  0  0  0  0  0  0
    0.2070    2.2145    6.7588 C   0  0  0  0  0  0  0  0  0  0  0  0
    0.9086    2.0611    5.5556 C   0  0  0  0  0  0  0  0  0  0  0  0
    0.4234    1.2280    7.8947 C   0  0  0  0  0  0  0  0  0  0  0  0
    0.9381    1.9690    9.1180 C   0  0  0  0  0  0  0  0  0  0  0  0
   -1.3978    3.3576    8.2066 C   0  0  0  0  0  0  0  0  0  0  0  0
    1.9267    2.1005    2.5576 C   0  0  0  0  0  0  0  0  0  0  0  0
    2.8538    2.0932    1.5111 C   0  0  0  0  0  0  0  0  0  0  0  0
    4.0550   -1.2435   -0.3546 H   0  0  0  0  0  0  0  0  0  0  0  0
    5.3439    3.4191   -0.0453 H   0  0  0  0  0  0  0  0  0  0  0  0
    4.5363    4.9329    2.2836 H   0  0  0  0  0  0  0  0  0  0  0  0
    0.1105    4.9704    4.0930 H   0  0  0  0  0  0  0  0  0  0  0  0
   -1.6552    4.7898    5.8781 H   0  0  0  0  0  0  0  0  0  0  0  0
    1.4088    1.1406    5.3379 H   0  0  0  0  0  0  0  0  0  0  0  0
   -0.5031    0.7483    8.1319 H   0  0  0  0  0  0  0  0  0  0  0  0
    1.1400    0.4917    7.5960 H   0  0  0  0  0  0  0  0  0  0  0  0
    1.0905    1.2745    9.9177 H   0  0  0  0  0  0  0  0  0  0  0  0
    1.8647    2.4487    8.8808 H   0  0  0  0  0  0  0  0  0  0  0  0
   -0.7081    3.4818    9.0152 H   0  0  0  0  0  0  0  0  0  0  0  0
   -2.0326    4.2167    8.1442 H   0  0  0  0  0  0  0  0  0  0  0  0
    1.2013    1.3182    2.6391 H   0  0  0  0  0  0  0  0  0  0  0  0
  1  2  2  0  0  0  0
  2  3  1  0  0  0  0
  2  4  1  0  0  0  0
  3 23  1  0  0  0  0
  4  5  2  0  0  0  0
  4 22  1  0  0  0  0
  5  6  1  0  0  0  0
  6  7  1  0  0  0  0
  6 24  1  0  0  0  0
  7  8  1  0  0  0  0
  7 22  2  0  0  0  0
  8  9  2  0  0  0  0
  8 25  1  0  0  0  0
  9 10  1  0  0  0  0
  9 11  1  0  0  0  0
 11 12  1  0  0  0  0
 11 21  2  0  0  0  0
 12 13  1  0  0  0  0
 12 17  2  0  0  0  0
 13 14  2  0  0  0  0
 13 26  1  0  0  0  0
 14 15  1  0  0  0  0
 14 27  1  0  0  0  0
 15 16  2  0  0  0  0
 15 20  1  0  0  0  0
 16 17  1  0  0  0  0
 16 18  1  0  0  0  0
 17 28  1  0  0  0  0
 18 19  1  0  0  0  0
 18 29  1  0  0  0  0
 18 30  1  0  0  0  0
 19 20  1  0  0  0  0
 19 31  1  0  0  0  0
 19 32  1  0  0  0  0
 20 33  1  0  0  0  0
 20 34  1  0  0  0  0
 21 22  1  0  0  0  0
 21 35  1  0  0  0  0
M  END
