
 OpenBabel03132514253D

 60 64  0  0  0  0  0  0  0  0999 V2000
    0.9382    0.0246   -0.0746 C   0  0  0  0  0  0  0  0  0  0  0  0
    0.4648   -0.9176    0.8765 O   0  0  0  0  0  0  0  0  0  0  0  0
    0.8079   -2.2896    0.7481 C   0  0  0  0  0  0  0  0  0  0  0  0
   -0.1666   -3.2599    0.9139 C   0  0  0  0  0  0  0  0  0  0  0  0
    0.3475   -4.5709    1.0517 C   0  0  0  0  0  0  0  0  0  0  0  0
    1.5682   -4.9370    0.7055 C   0  0  0  0  0  0  0  0  0  0  0  0
    1.9534   -6.3997    0.5555 C   0  0  0  0  0  0  0  0  0  0  0  0
    1.3990   -7.2861   -0.3151 C   0  0  0  0  0  0  0  0  0  0  0  0
    2.0121   -8.5229   -0.2182 N   0  0  0  0  0  0  0  0  0  0  0  0
    2.9815   -8.4342    0.7663 C   0  0  0  0  0  0  0  0  0  0  0  0
    3.7459   -9.4508    1.1602 N   0  0  0  0  0  0  0  0  0  0  0  0
    4.5787   -9.1503    2.1620 C   0  0  0  0  0  0  0  0  0  0  0  0
    4.6433   -7.8996    2.7777 C   0  0  0  0  0  0  0  0  0  0  0  0
    5.5997   -7.6742    3.9373 C   0  0  0  0  0  0  0  0  0  0  0  0
    5.0999   -7.2771    5.1665 C   0  0  0  0  0  0  0  0  0  0  0  0
    6.0884   -6.8042    6.0617 C   0  0  0  0  0  0  0  0  0  0  0  0
    7.3831   -7.0325    5.9365 C   0  0  0  0  0  0  0  0  0  0  0  0
    8.3520   -6.8007    7.0845 C   0  0  0  0  0  0  0  0  0  0  0  0
    7.9224   -6.3758    8.2026 O   0  0  0  0  0  0  0  0  0  0  0  0
    9.7858   -7.0679    6.9015 N   0  0  0  0  0  0  0  0  0  0  0  0
   10.6233   -6.3884    5.8963 C   0  0  0  0  0  0  0  0  0  0  0  0
   11.2950   -7.4223    5.0207 C   0  0  0  0  0  0  0  0  0  0  0  0
   12.0786   -8.3239    5.8022 O   0  0  0  0  0  0  0  0  0  0  0  0
   11.2465   -8.9990    6.7458 C   0  0  0  0  0  0  0  0  0  0  0  0
   10.5901   -8.0168    7.6977 C   0  0  0  0  0  0  0  0  0  0  0  0
    7.8051   -7.4887    4.7186 C   0  0  0  0  0  0  0  0  0  0  0  0
    9.2454   -7.5973    4.4451 N   0  0  0  0  0  0  0  0  0  0  0  0
    6.9024   -7.8470    3.7467 C   0  0  0  0  0  0  0  0  0  0  0  0
    3.8395   -6.8649    2.3356 C   0  0  0  0  0  0  0  0  0  0  0  0
    2.9724   -7.1223    1.2831 C   0  0  0  0  0  0  0  0  0  0  0  0
    2.4669   -3.9295    0.4893 C   0  0  0  0  0  0  0  0  0  0  0  0
    2.0645   -2.6159    0.4694 C   0  0  0  0  0  0  0  0  0  0  0  0
    3.0009   -1.5980    0.1478 O   0  0  0  0  0  0  0  0  0  0  0  0
    2.5919   -0.2383    0.1253 C   0  0  0  0  0  0  0  0  0  0  0  0
    0.5815    1.0002    0.1819 H   0  0  0  0  0  0  0  0  0  0  0  0
    0.5815   -0.2411   -1.0478 H   0  0  0  0  0  0  0  0  0  0  0  0
    2.0082    0.0246   -0.0746 H   0  0  0  0  0  0  0  0  0  0  0  0
   -1.2131   -3.0381    0.9358 H   0  0  0  0  0  0  0  0  0  0  0  0
   -0.2977   -5.3177    1.4652 H   0  0  0  0  0  0  0  0  0  0  0  0
    0.5964   -7.0575   -0.9849 H   0  0  0  0  0  0  0  0  0  0  0  0
    1.7900   -9.3503   -0.7719 H   0  0  0  0  0  0  0  0  0  0  0  0
    5.2370   -9.9170    2.5138 H   0  0  0  0  0  0  0  0  0  0  0  0
    4.0606   -7.3237    5.4165 H   0  0  0  0  0  0  0  0  0  0  0  0
    5.7644   -6.2211    6.8983 H   0  0  0  0  0  0  0  0  0  0  0  0
   11.3681   -5.8000    6.3902 H   0  0  0  0  0  0  0  0  0  0  0  0
   10.0106   -5.7525    5.2921 H   0  0  0  0  0  0  0  0  0  0  0  0
   10.5379   -7.9817    4.5120 H   0  0  0  0  0  0  0  0  0  0  0  0
   11.9304   -6.9256    4.3175 H   0  0  0  0  0  0  0  0  0  0  0  0
   11.8548   -9.6694    7.3162 H   0  0  0  0  0  0  0  0  0  0  0  0
   10.4858   -9.5363    6.2191 H   0  0  0  0  0  0  0  0  0  0  0  0
   11.3354   -7.4905    8.2567 H   0  0  0  0  0  0  0  0  0  0  0  0
    9.9572   -8.5432    8.3812 H   0  0  0  0  0  0  0  0  0  0  0  0
    9.9219   -7.3333    5.1613 H   0  0  0  0  0  0  0  0  0  0  0  0
    9.5683   -7.9367    3.5390 H   0  0  0  0  0  0  0  0  0  0  0  0
    7.2524   -8.2692    2.8278 H   0  0  0  0  0  0  0  0  0  0  0  0
    3.8847   -5.8973    2.7902 H   0  0  0  0  0  0  0  0  0  0  0  0
    3.4983   -4.1674    0.3333 H   0  0  0  0  0  0  0  0  0  0  0  0
    1.8139   -0.1118   -0.5983 H   0  0  0  0  0  0  0  0  0  0  0  0
    2.2286    0.0408    1.0922 H   0  0  0  0  0  0  0  0  0  0  0  0
    3.4251    0.3805   -0.1349 H   0  0  0  0  0  0  0  0  0  0  0  0
  1  2  1  0  0  0  0
  1 35  1  0  0  0  0
  1 36  1  0  0  0  0
  1 37  1  0  0  0  0
  2  3  1  0  0  0  0
  3  4  1  0  0  0  0
  3 32  2  0  0  0  0
  4  5  2  0  0  0  0
  4 38  1  0  0  0  0
  5  6  1  0  0  0  0
  5 39  1  0  0  0  0
  6  7  1  0  0  0  0
  6 31  2  0  0  0  0
  7  8  2  0  0  0  0
  7 30  1  0  0  0  0
  8  9  1  0  0  0  0
  8 40  1  0  0  0  0
  9 10  1  0  0  0  0
  9 41  1  0  0  0  0
 10 11  1  0  0  0  0
 10 30  2  0  0  0  0
 11 12  2  0  0  0  0
 12 13  1  0  0  0  0
 12 42  1  0  0  0  0
 13 14  1  0  0  0  0
 13 29  2  0  0  0  0
 14 15  1  0  0  0  0
 14 28  2  0  0  0  0
 15 16  2  0  0  0  0
 15 43  1  0  0  0  0
 16 17  1  0  0  0  0
 16 44  1  0  0  0  0
 17 18  1  0  0  0  0
 17 26  2  0  0  0  0
 18 19  2  0  0  0  0
 18 20  1  0  0  0  0
 20 21  1  0  0  0  0
 20 25  1  0  0  0  0
 21 22  1  0  0  0  0
 21 45  1  0  0  0  0
 21 46  1  0  0  0  0
 22 23  1  0  0  0  0
 22 47  1  0  0  0  0
 22 48  1  0  0  0  0
 23 24  1  0  0  0  0
 24 25  1  0  0  0  0
 24 49  1  0  0  0  0
 24 50  1  0  0  0  0
 25 51  1  0  0  0  0
 25 52  1  0  0  0  0
 26 27  1  0  0  0  0
 26 28  1  0  0  0  0
 27 53  1  0  0  0  0
 27 54  1  0  0  0  0
 28 55  1  0  0  0  0
 29 30  1  0  0  0  0
 29 56  1  0  0  0  0
 31 32  1  0  0  0  0
 31 57  1  0  0  0  0
 32 33  1  0  0  0  0
 33 34  1  0  0  0  0
 34 58  1  0  0  0  0
 34 59  1  0  0  0  0
 34 60  1  0  0  0  0
M  END
