
 OpenBabel03132512093D

 53 57  0  0  0  0  0  0  0  0999 V2000
    0.9593   -0.0615    0.0675 C   0  0  0  0  0  0  0  0  0  0  0  0
    0.4527   -1.4281   -0.3641 C   0  0  0  0  0  0  0  0  0  0  0  0
    0.9427   -2.4503    0.5717 N   0  0  0  0  0  0  0  0  0  0  0  0
   -0.0126   -3.2745    1.3261 C   0  0  0  0  0  0  0  0  0  0  0  0
    0.4110   -4.1583    2.1352 O   0  0  0  0  0  0  0  0  0  0  0  0
   -1.5070   -3.0696    1.1386 C   0  0  0  0  0  0  0  0  0  0  0  0
   -2.4566   -2.9985    2.1239 C   0  0  0  0  0  0  0  0  0  0  0  0
   -3.6826   -2.8316    1.5578 N   0  0  0  0  0  0  0  0  0  0  0  0
   -3.5846   -2.7663    0.1840 C   0  0  0  0  0  0  0  0  0  0  0  0
   -4.4705   -2.6052   -0.7974 N   0  0  0  0  0  0  0  0  0  0  0  0
   -4.0796   -2.5698   -2.0631 C   0  0  0  0  0  0  0  0  0  0  0  0
   -2.7225   -2.7213   -2.3975 C   0  0  0  0  0  0  0  0  0  0  0  0
   -2.2750   -2.7062   -3.8500 C   0  0  0  0  0  0  0  0  0  0  0  0
   -1.6549   -3.6857   -4.4758 C   0  0  0  0  0  0  0  0  0  0  0  0
   -1.4054   -3.3488   -5.7327 N   0  0  0  0  0  0  0  0  0  0  0  0
   -0.7266   -4.1917   -6.7275 C   0  0  0  0  0  0  0  0  0  0  0  0
   -1.8721   -2.1193   -5.9450 C   0  0  0  0  0  0  0  0  0  0  0  0
   -1.9054   -1.2422   -7.0493 C   0  0  0  0  0  0  0  0  0  0  0  0
   -2.4769   -0.0260   -6.9124 C   0  0  0  0  0  0  0  0  0  0  0  0
   -2.5250    1.0738   -8.3111 Cl  0  0  0  0  0  0  0  0  0  0  0  0
   -3.0162    0.3780   -5.7321 C   0  0  0  0  0  0  0  0  0  0  0  0
   -3.0178   -0.4212   -4.6419 C   0  0  0  0  0  0  0  0  0  0  0  0
   -2.4441   -1.6921   -4.7138 C   0  0  0  0  0  0  0  0  0  0  0  0
   -1.8370   -2.8784   -1.4147 N   0  0  0  0  0  0  0  0  0  0  0  0
   -2.2227   -2.9088   -0.1414 C   0  0  0  0  0  0  0  0  0  0  0  0
   -1.0673   -1.4281   -0.3641 C   0  0  0  0  0  0  0  0  0  0  0  0
   -1.7028   -1.6657   -1.4388 O   0  0  0  0  0  0  0  0  0  0  0  0
   -1.8023   -1.1531    0.8789 N   0  0  0  0  0  0  0  0  0  0  0  0
   -2.9775   -1.7791    1.6497 C   0  0  0  0  0  0  0  0  0  0  0  0
   -3.1918   -0.3975    2.2887 C   0  0  0  0  0  0  0  0  0  0  0  0
   -3.8017   -0.2385    3.6718 C   0  0  0  0  0  0  0  0  0  0  0  0
   -4.3078   -0.1065    4.8193 N   0  0  0  0  0  0  0  0  0  0  0  0
   -1.7020   -0.1263    2.0219 C   0  0  0  0  0  0  0  0  0  0  0  0
    0.6027    0.1563    1.0525 H   0  0  0  0  0  0  0  0  0  0  0  0
    0.6027    0.6826   -0.6136 H   0  0  0  0  0  0  0  0  0  0  0  0
    2.0293   -0.0615    0.0675 H   0  0  0  0  0  0  0  0  0  0  0  0
    0.8093   -1.6459   -1.3491 H   0  0  0  0  0  0  0  0  0  0  0  0
    1.9455   -2.5878    0.6976 H   0  0  0  0  0  0  0  0  0  0  0  0
   -2.2640   -3.0639    3.1744 H   0  0  0  0  0  0  0  0  0  0  0  0
   -4.5565   -2.7639    2.0795 H   0  0  0  0  0  0  0  0  0  0  0  0
   -4.8034   -2.4245   -2.8377 H   0  0  0  0  0  0  0  0  0  0  0  0
   -1.3898   -4.6222   -4.0313 H   0  0  0  0  0  0  0  0  0  0  0  0
   -1.3822   -4.3648   -7.5553 H   0  0  0  0  0  0  0  0  0  0  0  0
    0.1578   -3.6966   -7.0705 H   0  0  0  0  0  0  0  0  0  0  0  0
   -0.4613   -5.1271   -6.2810 H   0  0  0  0  0  0  0  0  0  0  0  0
   -1.4820   -1.5375   -7.9865 H   0  0  0  0  0  0  0  0  0  0  0  0
   -3.4505    1.3535   -5.6640 H   0  0  0  0  0  0  0  0  0  0  0  0
   -3.4570   -0.0812   -3.7274 H   0  0  0  0  0  0  0  0  0  0  0  0
   -3.7674   -2.3013    1.1516 H   0  0  0  0  0  0  0  0  0  0  0  0
   -2.7017   -2.5521    2.3363 H   0  0  0  0  0  0  0  0  0  0  0  0
   -3.8651    0.2417    1.7568 H   0  0  0  0  0  0  0  0  0  0  0  0
   -0.9643   -0.2066    2.7928 H   0  0  0  0  0  0  0  0  0  0  0  0
   -1.4774    0.8719    1.7090 H   0  0  0  0  0  0  0  0  0  0  0  0
  1  2  1  0  0  0  0
  1 34  1  0  0  0  0
  1 35  1  0  0  0  0
  1 36  1  0  0  0  0
  2  3  1  0  0  0  0
  2 26  1  0  0  0  0
  2 37  1  0  0  0  0
  3  4  1  0  0  0  0
  3 38  1  0  0  0  0
  4  5  2  0  0  0  0
  4  6  1  0  0  0  0
  6  7  2  0  0  0  0
  6 25  1  0  0  0  0
  7  8  1  0  0  0  0
  7 39  1  0  0  0  0
  8  9  1  0  0  0  0
  8 40  1  0  0  0  0
  9 10  1  0  0  0  0
  9 25  2  0  0  0  0
 10 11  2  0  0  0  0
 11 12  1  0  0  0  0
 11 41  1  0  0  0  0
 12 13  1  0  0  0  0
 12 24  2  0  0  0  0
 13 14  2  0  0  0  0
 13 23  1  0  0  0  0
 14 15  1  0  0  0  0
 14 42  1  0  0  0  0
 15 16  1  0  0  0  0
 15 17  1  0  0  0  0
 16 43  1  0  0  0  0
 16 44  1  0  0  0  0
 16 45  1  0  0  0  0
 17 18  1  0  0  0  0
 17 23  2  0  0  0  0
 18 19  2  0  0  0  0
 18 46  1  0  0  0  0
 19 20  1  0  0  0  0
 19 21  1  0  0  0  0
 21 22  2  0  0  0  0
 21 47  1  0  0  0  0
 22 23  1  0  0  0  0
 22 48  1  0  0  0  0
 24 25  1  0  0  0  0
 26 27  2  0  0  0  0
 26 28  1  0  0  0  0
 28 29  1  0  0  0  0
 28 33  1  0  0  0  0
 29 30  1  0  0  0  0
 29 49  1  0  0  0  0
 29 50  1  0  0  0  0
 30 31  1  0  0  0  0
 30 33  1  0  0  0  0
 30 51  1  0  0  0  0
 31 32  3  0  0  0  0
 33 52  1  0  0  0  0
 33 53  1  0  0  0  0
M  END
