
 OpenBabel03132512083D

 56 61  0  0  0  0  0  0  0  0999 V2000
    0.9409   -0.0647   -0.0483 O   0  0  0  0  0  0  0  0  0  0  0  0
    0.4676    0.6401   -1.1866 C   0  0  0  0  0  0  0  0  0  0  0  0
    0.9743    2.0725   -1.1424 C   0  0  0  0  0  0  0  0  0  0  0  0
    2.2681    2.3042   -0.7054 C   0  0  0  0  0  0  0  0  0  0  0  0
    2.5456    3.6643   -0.4312 C   0  0  0  0  0  0  0  0  0  0  0  0
    1.8221    4.6791   -0.8679 C   0  0  0  0  0  0  0  0  0  0  0  0
    2.3431    6.1067   -0.8357 C   0  0  0  0  0  0  0  0  0  0  0  0
    3.4934    6.4075   -1.5463 C   0  0  0  0  0  0  0  0  0  0  0  0
    4.0511    7.6681   -1.2273 C   0  0  0  0  0  0  0  0  0  0  0  0
    3.4029    8.6394   -0.6105 C   0  0  0  0  0  0  0  0  0  0  0  0
    3.9240   10.0673   -0.5967 C   0  0  0  0  0  0  0  0  0  0  0  0
    4.1048   10.7442   -1.7865 N   0  0  0  0  0  0  0  0  0  0  0  0
    4.5904   12.0552   -1.7689 C   0  0  0  0  0  0  0  0  0  0  0  0
    4.8931   13.0365   -2.8095 N   0  0  0  0  0  0  0  0  0  0  0  0
    5.3253   14.1165   -2.2270 C   0  0  0  0  0  0  0  0  0  0  0  0
    5.7237   15.3002   -2.9025 O   0  0  0  0  0  0  0  0  0  0  0  0
    5.6655   15.3626   -4.3200 C   0  0  0  0  0  0  0  0  0  0  0  0
    4.4026   15.1691   -4.7331 C   0  0  0  0  0  0  0  0  0  0  0  0
    4.1557   13.7454   -4.9021 O   0  0  0  0  0  0  0  0  0  0  0  0
    5.5308   13.0860   -5.1215 C   0  0  0  0  0  0  0  0  0  0  0  0
    5.6794   12.7176   -6.5830 C   0  0  0  0  0  0  0  0  0  0  0  0
    4.4486   12.2515   -7.1161 O   0  0  0  0  0  0  0  0  0  0  0  0
    6.0986   13.8372   -7.2346 C   0  0  0  0  0  0  0  0  0  0  0  0
    6.9204   14.6483   -6.3494 O   0  0  0  0  0  0  0  0  0  0  0  0
    6.5244   14.2632   -4.9114 C   0  0  0  0  0  0  0  0  0  0  0  0
    5.3408   13.9432   -0.8397 N   0  0  0  0  0  0  0  0  0  0  0  0
    4.8894   12.6736   -0.5421 C   0  0  0  0  0  0  0  0  0  0  0  0
    4.7001   11.9768    0.6459 C   0  0  0  0  0  0  0  0  0  0  0  0
    4.2168   10.6879    0.6179 C   0  0  0  0  0  0  0  0  0  0  0  0
    3.9635    9.8065    2.1435 Cl  0  0  0  0  0  0  0  0  0  0  0  0
    2.2380    8.2916    0.0150 C   0  0  0  0  0  0  0  0  0  0  0  0
    1.6983    7.0379   -0.1427 C   0  0  0  0  0  0  0  0  0  0  0  0
    0.5791    4.3766   -1.3506 C   0  0  0  0  0  0  0  0  0  0  0  0
    0.1868    3.0713   -1.5239 C   0  0  0  0  0  0  0  0  0  0  0  0
    1.9409   -0.0647   -0.0483 H   0  0  0  0  0  0  0  0  0  0  0  0
    0.8243    0.1628   -2.0753 H   0  0  0  0  0  0  0  0  0  0  0  0
   -0.6024    0.6401   -1.1866 H   0  0  0  0  0  0  0  0  0  0  0  0
    2.9920    1.5254   -0.5859 H   0  0  0  0  0  0  0  0  0  0  0  0
    3.4011    3.8860    0.1720 H   0  0  0  0  0  0  0  0  0  0  0  0
    3.9214    5.7465   -2.2707 H   0  0  0  0  0  0  0  0  0  0  0  0
    5.0688    7.8469   -1.5052 H   0  0  0  0  0  0  0  0  0  0  0  0
    6.0154   16.3233   -4.6357 H   0  0  0  0  0  0  0  0  0  0  0  0
    3.7263   15.5622   -4.0030 H   0  0  0  0  0  0  0  0  0  0  0  0
    4.2531   15.6695   -5.6670 H   0  0  0  0  0  0  0  0  0  0  0  0
    5.6719   12.2293   -4.4962 H   0  0  0  0  0  0  0  0  0  0  0  0
    6.4018   11.9360   -6.6933 H   0  0  0  0  0  0  0  0  0  0  0  0
    3.7543   12.9653   -7.0251 H   0  0  0  0  0  0  0  0  0  0  0  0
    5.2456   14.4055   -7.5418 H   0  0  0  0  0  0  0  0  0  0  0  0
    6.6732   13.5544   -8.0918 H   0  0  0  0  0  0  0  0  0  0  0  0
    7.3800   14.0662   -4.2998 H   0  0  0  0  0  0  0  0  0  0  0  0
    5.6376   14.6418   -0.1583 H   0  0  0  0  0  0  0  0  0  0  0  0
    4.9300   12.4419    1.5817 H   0  0  0  0  0  0  0  0  0  0  0  0
    1.7394    9.0060    0.6363 H   0  0  0  0  0  0  0  0  0  0  0  0
    0.7497    6.8099    0.2968 H   0  0  0  0  0  0  0  0  0  0  0  0
   -0.0978    5.1678   -1.5969 H   0  0  0  0  0  0  0  0  0  0  0  0
   -0.7619    2.8577   -1.9702 H   0  0  0  0  0  0  0  0  0  0  0  0
  1  2  1  0  0  0  0
  1 35  1  0  0  0  0
  2  3  1  0  0  0  0
  2 36  1  0  0  0  0
  2 37  1  0  0  0  0
  3  4  1  0  0  0  0
  3 34  2  0  0  0  0
  4  5  2  0  0  0  0
  4 38  1  0  0  0  0
  5  6  1  0  0  0  0
  5 39  1  0  0  0  0
  6  7  1  0  0  0  0
  6 33  2  0  0  0  0
  7  8  1  0  0  0  0
  7 32  2  0  0  0  0
  8  9  2  0  0  0  0
  8 40  1  0  0  0  0
  9 10  1  0  0  0  0
  9 41  1  0  0  0  0
 10 11  1  0  0  0  0
 10 31  2  0  0  0  0
 11 12  1  0  0  0  0
 11 29  2  0  0  0  0
 12 13  2  0  0  0  0
 13 14  1  0  0  0  0
 13 27  1  0  0  0  0
 14 15  2  0  0  0  0
 15 16  1  0  0  0  0
 15 26  1  0  0  0  0
 16 17  1  0  0  0  0
 17 18  1  0  0  0  0
 17 25  1  0  0  0  0
 17 42  1  0  0  0  0
 18 19  1  0  0  0  0
 18 43  1  0  0  0  0
 18 44  1  0  0  0  0
 19 20  1  0  0  0  0
 20 21  1  0  0  0  0
 20 25  1  0  0  0  0
 20 45  1  0  0  0  0
 21 22  1  0  0  0  0
 21 23  1  0  0  0  0
 21 46  1  0  0  0  0
 22 47  1  0  0  0  0
 23 24  1  0  0  0  0
 23 48  1  0  0  0  0
 23 49  1  0  0  0  0
 24 25  1  0  0  0  0
 25 50  1  0  0  0  0
 26 27  1  0  0  0  0
 26 51  1  0  0  0  0
 27 28  2  0  0  0  0
 28 29  1  0  0  0  0
 28 52  1  0  0  0  0
 29 30  1  0  0  0  0
 31 32  1  0  0  0  0
 31 53  1  0  0  0  0
 32 54  1  0  0  0  0
 33 34  1  0  0  0  0
 33 55  1  0  0  0  0
 34 56  1  0  0  0  0
M  END
