
 OpenBabel03132514253D

 27 29  0  0  0  0  0  0  0  0999 V2000
    0.9180   -0.0503   -0.0275 C   0  0  0  0  0  0  0  0  0  0  0  0
    0.4114   -1.3457   -0.6402 C   0  0  0  0  0  0  0  0  0  0  0  0
    0.9014   -2.4854    0.1485 N   0  0  0  0  0  0  0  0  0  0  0  0
    1.5817   -2.4868    1.2766 C   0  0  0  0  0  0  0  0  0  0  0  0
    2.1719   -1.2499    1.9341 C   0  0  0  0  0  0  0  0  0  0  0  0
    3.9154   -0.9090    2.0960 N   0  0  0  0  0  0  0  0  0  0  0  0
    3.8086    0.6863    2.7663 O   0  0  0  0  0  0  0  0  0  0  0  0
    2.4677    0.9018    2.8434 N   0  0  0  0  0  0  0  0  0  0  0  0
    1.6063   -0.0771    2.4157 C   0  0  0  0  0  0  0  0  0  0  0  0
    0.1489    0.1081    2.4653 N   0  0  0  0  0  0  0  0  0  0  0  0
    1.6796   -3.7174    1.7579 N   0  0  0  0  0  0  0  0  0  0  0  0
    1.0485   -4.5497    0.9310 C   0  0  0  0  0  0  0  0  0  0  0  0
    0.8133   -5.9403    0.9039 C   0  0  0  0  0  0  0  0  0  0  0  0
    0.1101   -6.4734   -0.1187 N   0  0  0  0  0  0  0  0  0  0  0  0
   -0.3721   -5.7025   -1.1288 C   0  0  0  0  0  0  0  0  0  0  0  0
   -0.1822   -4.3644   -1.1534 C   0  0  0  0  0  0  0  0  0  0  0  0
    0.5355   -3.7477   -0.1267 C   0  0  0  0  0  0  0  0  0  0  0  0
    0.5614    0.0322    0.9779 H   0  0  0  0  0  0  0  0  0  0  0  0
    0.5614    0.7792   -0.6016 H   0  0  0  0  0  0  0  0  0  0  0  0
    1.9880   -0.0503   -0.0275 H   0  0  0  0  0  0  0  0  0  0  0  0
   -0.6586   -1.3457   -0.6402 H   0  0  0  0  0  0  0  0  0  0  0  0
    0.7680   -1.4282   -1.6457 H   0  0  0  0  0  0  0  0  0  0  0  0
   -0.2427    0.9791    2.8235 H   0  0  0  0  0  0  0  0  0  0  0  0
   -0.4708   -0.6346    2.1415 H   0  0  0  0  0  0  0  0  0  0  0  0
    1.1883   -6.5669    1.6860 H   0  0  0  0  0  0  0  0  0  0  0  0
   -0.9159   -6.1667   -1.9250 H   0  0  0  0  0  0  0  0  0  0  0  0
   -0.5803   -3.7801   -1.9565 H   0  0  0  0  0  0  0  0  0  0  0  0
  1  2  1  0  0  0  0
  1 18  1  0  0  0  0
  1 19  1  0  0  0  0
  1 20  1  0  0  0  0
  2  3  1  0  0  0  0
  2 21  1  0  0  0  0
  2 22  1  0  0  0  0
  3  4  1  0  0  0  0
  3 17  1  0  0  0  0
  4  5  1  0  0  0  0
  4 11  2  0  0  0  0
  5  6  2  0  0  0  0
  5  9  1  0  0  0  0
  6  7  1  0  0  0  0
  7  8  1  0  0  0  0
  8  9  2  0  0  0  0
  9 10  1  0  0  0  0
 10 23  1  0  0  0  0
 10 24  1  0  0  0  0
 11 12  1  0  0  0  0
 12 13  1  0  0  0  0
 12 17  2  0  0  0  0
 13 14  2  0  0  0  0
 13 25  1  0  0  0  0
 14 15  1  0  0  0  0
 15 16  2  0  0  0  0
 15 26  1  0  0  0  0
 16 17  1  0  0  0  0
 16 27  1  0  0  0  0
M  END
