
 OpenBabel03132514253D

 60 64  0  0  0  0  0  0  0  0999 V2000
    0.9586   -0.0730   -0.0544 O   0  0  0  0  0  0  0  0  0  0  0  0
    2.2295   -0.0730   -0.0544 C   0  0  0  0  0  0  0  0  0  0  0  0
    2.9645   -1.1672    0.5963 N   0  0  0  0  0  0  0  0  0  0  0  0
    4.4345   -1.1672    0.5963 C   0  0  0  0  0  0  0  0  0  0  0  0
    4.9412   -1.1487    2.0293 C   0  0  0  0  0  0  0  0  0  0  0  0
    4.4679   -2.2994    2.7136 O   0  0  0  0  0  0  0  0  0  0  0  0
    4.9412   -2.4174   -0.1042 C   0  0  0  0  0  0  0  0  0  0  0  0
    4.1927   -3.5565    0.1427 C   0  0  0  0  0  0  0  0  0  0  0  0
    4.7786   -4.7457   -0.3517 C   0  0  0  0  0  0  0  0  0  0  0  0
    5.7328   -4.7876   -1.2637 C   0  0  0  0  0  0  0  0  0  0  0  0
    6.3892   -3.6140   -1.5113 C   0  0  0  0  0  0  0  0  0  0  0  0
    5.9556   -2.4321   -0.9609 C   0  0  0  0  0  0  0  0  0  0  0  0
    2.9895    1.0584   -0.7272 C   0  0  0  0  0  0  0  0  0  0  0  0
    4.0329    0.8486   -1.6138 C   0  0  0  0  0  0  0  0  0  0  0  0
    4.7351    2.0266   -1.9619 C   0  0  0  0  0  0  0  0  0  0  0  0
    4.2745    3.2521   -1.7881 C   0  0  0  0  0  0  0  0  0  0  0  0
    4.8529    4.3500   -2.4205 N   0  0  0  0  0  0  0  0  0  0  0  0
    4.3367    5.6264   -2.2103 C   0  0  0  0  0  0  0  0  0  0  0  0
    3.1814    5.8148   -1.3211 N   0  0  0  0  0  0  0  0  0  0  0  0
    2.6366    7.1620   -1.0994 C   0  0  0  0  0  0  0  0  0  0  0  0
    1.7014    6.2961   -1.9305 C   0  0  0  0  0  0  0  0  0  0  0  0
    2.0483    6.3376   -3.4181 C   0  0  0  0  0  0  0  0  0  0  0  0
    2.0086    7.7938   -3.8837 C   0  0  0  0  0  0  0  0  0  0  0  0
    2.3998    7.9593   -5.2495 O   0  0  0  0  0  0  0  0  0  0  0  0
    2.9556    8.6474   -3.0722 C   0  0  0  0  0  0  0  0  0  0  0  0
    2.6517    8.5970   -1.5836 C   0  0  0  0  0  0  0  0  0  0  0  0
    4.9679    6.8246   -2.9005 C   0  0  0  0  0  0  0  0  0  0  0  0
    5.2881    6.7850   -4.1650 N   0  0  0  0  0  0  0  0  0  0  0  0
    5.9474    7.9338   -4.4515 C   0  0  0  0  0  0  0  0  0  0  0  0
    5.9824    8.6413   -3.2962 C   0  0  0  0  0  0  0  0  0  0  0  0
    5.3769    7.9296   -2.3851 N   0  0  0  0  0  0  0  0  0  0  0  0
    3.1994    3.3850   -0.9539 C   0  0  0  0  0  0  0  0  0  0  0  0
    2.5411    2.2811   -0.4682 C   0  0  0  0  0  0  0  0  0  0  0  0
    2.4545   -1.9264    1.0478 H   0  0  0  0  0  0  0  0  0  0  0  0
    4.7912   -0.3001    0.0807 H   0  0  0  0  0  0  0  0  0  0  0  0
    6.0112   -1.1487    2.0293 H   0  0  0  0  0  0  0  0  0  0  0  0
    4.5845   -0.2686    2.5224 H   0  0  0  0  0  0  0  0  0  0  0  0
    3.4679   -2.2994    2.7136 H   0  0  0  0  0  0  0  0  0  0  0  0
    3.2565   -3.5386    0.6605 H   0  0  0  0  0  0  0  0  0  0  0  0
    4.4237   -5.6759    0.0405 H   0  0  0  0  0  0  0  0  0  0  0  0
    5.9790   -5.6913   -1.7810 H   0  0  0  0  0  0  0  0  0  0  0  0
    7.2529   -3.6160   -2.1429 H   0  0  0  0  0  0  0  0  0  0  0  0
    6.4398   -1.5152   -1.2249 H   0  0  0  0  0  0  0  0  0  0  0  0
    4.2849   -0.1168   -2.0003 H   0  0  0  0  0  0  0  0  0  0  0  0
    5.7068    1.9169   -2.3962 H   0  0  0  0  0  0  0  0  0  0  0  0
    2.7578    5.0108   -0.8580 H   0  0  0  0  0  0  0  0  0  0  0  0
    2.8498    7.6524   -0.1726 H   0  0  0  0  0  0  0  0  0  0  0  0
    0.7086    6.6775   -1.8133 H   0  0  0  0  0  0  0  0  0  0  0  0
    1.7723    5.2849   -1.5880 H   0  0  0  0  0  0  0  0  0  0  0  0
    1.3451    5.7546   -3.9755 H   0  0  0  0  0  0  0  0  0  0  0  0
    3.0279    5.9358   -3.5720 H   0  0  0  0  0  0  0  0  0  0  0  0
    0.9889    8.0931   -3.7587 H   0  0  0  0  0  0  0  0  0  0  0  0
    3.3531    7.6781   -5.3595 H   0  0  0  0  0  0  0  0  0  0  0  0
    3.9442    8.2642   -3.2160 H   0  0  0  0  0  0  0  0  0  0  0  0
    2.8752    9.6611   -3.4050 H   0  0  0  0  0  0  0  0  0  0  0  0
    1.6906    9.0338   -1.4091 H   0  0  0  0  0  0  0  0  0  0  0  0
    3.4034    9.1415   -1.0511 H   0  0  0  0  0  0  0  0  0  0  0  0
    6.3568    8.2232   -5.3968 H   0  0  0  0  0  0  0  0  0  0  0  0
    6.4248    9.6055   -3.1567 H   0  0  0  0  0  0  0  0  0  0  0  0
    1.6591    2.4079    0.1242 H   0  0  0  0  0  0  0  0  0  0  0  0
  1  2  2  0  0  0  0
  2  3  1  0  0  0  0
  2 13  1  0  0  0  0
  3  4  1  0  0  0  0
  3 34  1  0  0  0  0
  4  5  1  0  0  0  0
  4  7  1  0  0  0  0
  4 35  1  0  0  0  0
  5  6  1  0  0  0  0
  5 36  1  0  0  0  0
  5 37  1  0  0  0  0
  6 38  1  0  0  0  0
  7  8  1  0  0  0  0
  7 12  2  0  0  0  0
  8  9  2  0  0  0  0
  8 39  1  0  0  0  0
  9 10  1  0  0  0  0
  9 40  1  0  0  0  0
 10 11  2  0  0  0  0
 10 41  1  0  0  0  0
 11 12  1  0  0  0  0
 11 42  1  0  0  0  0
 12 43  1  0  0  0  0
 13 14  1  0  0  0  0
 13 33  2  0  0  0  0
 14 15  2  0  0  0  0
 14 44  1  0  0  0  0
 15 16  1  0  0  0  0
 15 45  1  0  0  0  0
 16 17  1  0  0  0  0
 16 32  2  0  0  0  0
 17 18  2  0  0  0  0
 18 19  1  0  0  0  0
 18 27  1  0  0  0  0
 19 20  1  0  0  0  0
 19 46  1  0  0  0  0
 20 21  1  0  0  0  0
 20 26  1  0  0  0  0
 20 47  1  0  0  0  0
 21 22  1  0  0  0  0
 21 48  1  0  0  0  0
 21 49  1  0  0  0  0
 22 23  1  0  0  0  0
 22 50  1  0  0  0  0
 22 51  1  0  0  0  0
 23 24  1  0  0  0  0
 23 25  1  0  0  0  0
 23 52  1  0  0  0  0
 24 53  1  0  0  0  0
 25 26  1  0  0  0  0
 25 54  1  0  0  0  0
 25 55  1  0  0  0  0
 26 56  1  0  0  0  0
 26 57  1  0  0  0  0
 27 28  2  0  0  0  0
 27 31  1  0  0  0  0
 28 29  1  0  0  0  0
 29 30  2  0  0  0  0
 29 58  1  0  0  0  0
 30 31  1  0  0  0  0
 30 59  1  0  0  0  0
 31 32  1  0  0  0  0
 32 33  1  0  0  0  0
 33 60  1  0  0  0  0
M  END
