
 OpenBabel03132512093D

 58 62  0  0  0  0  0  0  0  0999 V2000
    2.4380   -0.0000    0.0380 C   0  0  0  0  0  0  0  0  0  0  0  0
    1.0180   -0.0020   -0.2960 N   0  0  0  0  0  0  0  0  0  0  0  0
    0.3520    1.1660    0.2430 C   0  0  0  0  0  0  0  0  0  0  0  0
   -1.1080    1.2200   -0.1800 C   0  0  0  0  0  0  0  0  0  0  0  0
   -1.8140   -0.0100    0.1560 N   0  0  0  0  0  0  0  0  0  0  0  0
   -3.1373   -0.0263    0.7959 C   0  0  0  0  0  0  0  0  0  0  0  0
   -3.2732   -0.6433    2.0239 C   0  0  0  0  0  0  0  0  0  0  0  0
   -4.5285   -0.6875    2.6355 C   0  0  0  0  0  0  0  0  0  0  0  0
   -5.5893   -0.0821    1.9737 C   0  0  0  0  0  0  0  0  0  0  0  0
   -6.9839   -0.0980    2.5781 C   0  0  0  0  0  0  0  0  0  0  0  0
   -8.0309   -0.6875    1.8974 C   0  0  0  0  0  0  0  0  0  0  0  0
   -9.2838   -0.7093    2.3782 N   0  0  0  0  0  0  0  0  0  0  0  0
   -9.5050   -0.1325    3.5635 C   0  0  0  0  0  0  0  0  0  0  0  0
   -8.5157    0.4544    4.3188 C   0  0  0  0  0  0  0  0  0  0  0  0
   -7.2169    0.4837    3.8268 C   0  0  0  0  0  0  0  0  0  0  0  0
   -8.8291    1.0426    5.6290 N   0  0  0  0  0  0  0  0  0  0  0  0
  -10.2068    1.0062    6.1404 C   0  0  0  0  0  0  0  0  0  0  0  0
  -10.2393    0.2442    7.4552 C   0  0  0  0  0  0  0  0  0  0  0  0
  -11.3212   -0.4078    7.8236 C   0  0  0  0  0  0  0  0  0  0  0  0
  -12.4128   -0.4009    7.0638 F   0  0  0  0  0  0  0  0  0  0  0  0
  -11.2951   -1.1043    9.0270 C   0  0  0  0  0  0  0  0  0  0  0  0
  -10.0229   -1.4879    9.5069 C   0  0  0  0  0  0  0  0  0  0  0  0
   -8.9773   -0.5990    9.2637 C   0  0  0  0  0  0  0  0  0  0  0  0
   -7.8881   -0.6026   10.0270 F   0  0  0  0  0  0  0  0  0  0  0  0
   -9.0945    0.2441    8.2597 C   0  0  0  0  0  0  0  0  0  0  0  0
   -7.7816    1.3975    7.9216 Cl  0  0  0  0  0  0  0  0  0  0  0  0
   -7.7648    1.6671    6.4279 C   0  0  0  0  0  0  0  0  0  0  0  0
   -6.6910    0.6362    6.7356 C   0  0  0  0  0  0  0  0  0  0  0  0
  -10.8781   -0.1246    4.0881 N   0  0  0  0  0  0  0  0  0  0  0  0
   -5.3608    0.5323    0.7638 C   0  0  0  0  0  0  0  0  0  0  0  0
   -4.1667    0.5591    0.1639 N   0  0  0  0  0  0  0  0  0  0  0  0
   -1.0970   -1.2070   -0.1960 C   0  0  0  0  0  0  0  0  0  0  0  0
    0.3440   -1.1640    0.2580 C   0  0  0  0  0  0  0  0  0  0  0  0
    2.8992    0.8749   -0.3703 H   0  0  0  0  0  0  0  0  0  0  0  0
    2.5542   -0.0011    1.1017 H   0  0  0  0  0  0  0  0  0  0  0  0
    2.9022   -0.8724   -0.3724 H   0  0  0  0  0  0  0  0  0  0  0  0
    0.3903    1.1114    1.3109 H   0  0  0  0  0  0  0  0  0  0  0  0
    0.8494    2.0445   -0.1116 H   0  0  0  0  0  0  0  0  0  0  0  0
   -1.1425    1.3441   -1.2422 H   0  0  0  0  0  0  0  0  0  0  0  0
   -1.5830    2.0392    0.3181 H   0  0  0  0  0  0  0  0  0  0  0  0
   -2.4239   -1.0839    2.5030 H   0  0  0  0  0  0  0  0  0  0  0  0
   -4.6679   -1.1705    3.5800 H   0  0  0  0  0  0  0  0  0  0  0  0
   -7.8357   -1.1447    0.9499 H   0  0  0  0  0  0  0  0  0  0  0  0
   -6.4233    0.9356    4.3843 H   0  0  0  0  0  0  0  0  0  0  0  0
  -10.5550    2.0056    6.2987 H   0  0  0  0  0  0  0  0  0  0  0  0
  -10.8386    0.5170    5.4288 H   0  0  0  0  0  0  0  0  0  0  0  0
  -12.1920   -1.3376    9.5617 H   0  0  0  0  0  0  0  0  0  0  0  0
   -9.8705   -2.4097   10.0283 H   0  0  0  0  0  0  0  0  0  0  0  0
   -7.3342    2.4772    5.8773 H   0  0  0  0  0  0  0  0  0  0  0  0
   -8.1766    2.0372    7.3435 H   0  0  0  0  0  0  0  0  0  0  0  0
   -5.9163    1.0908    7.3171 H   0  0  0  0  0  0  0  0  0  0  0  0
   -7.1217   -0.1739    7.2862 H   0  0  0  0  0  0  0  0  0  0  0  0
  -11.0770    0.3083    4.9900 H   0  0  0  0  0  0  0  0  0  0  0  0
   -6.1829    1.0142    0.2772 H   0  0  0  0  0  0  0  0  0  0  0  0
   -1.1029   -1.2916   -1.2626 H   0  0  0  0  0  0  0  0  0  0  0  0
   -1.5783   -2.0447    0.2639 H   0  0  0  0  0  0  0  0  0  0  0  0
    0.8409   -2.0478   -0.0839 H   0  0  0  0  0  0  0  0  0  0  0  0
    0.3752   -1.1130    1.3263 H   0  0  0  0  0  0  0  0  0  0  0  0
  1  2  1  0  0  0  0
  1 34  1  0  0  0  0
  1 35  1  0  0  0  0
  1 36  1  0  0  0  0
  2  3  1  0  0  0  0
  2 33  1  0  0  0  0
  3  4  1  0  0  0  0
  3 37  1  0  0  0  0
  3 38  1  0  0  0  0
  4  5  1  0  0  0  0
  4 39  1  0  0  0  0
  4 40  1  0  0  0  0
  5  6  1  0  0  0  0
  5 32  1  0  0  0  0
  6  7  1  0  0  0  0
  6 31  2  0  0  0  0
  7  8  2  0  0  0  0
  7 41  1  0  0  0  0
  8  9  1  0  0  0  0
  8 42  1  0  0  0  0
  9 10  1  0  0  0  0
  9 30  2  0  0  0  0
 10 11  1  0  0  0  0
 10 15  2  0  0  0  0
 11 12  2  0  0  0  0
 11 43  1  0  0  0  0
 12 13  1  0  0  0  0
 13 14  2  0  0  0  0
 13 29  1  0  0  0  0
 14 15  1  0  0  0  0
 14 16  1  0  0  0  0
 15 44  1  0  0  0  0
 16 17  1  0  0  0  0
 16 27  1  0  0  0  0
 17 18  1  0  0  0  0
 17 45  1  0  0  0  0
 17 46  1  0  0  0  0
 18 19  1  0  0  0  0
 18 25  2  0  0  0  0
 19 20  1  0  0  0  0
 19 21  2  0  0  0  0
 21 22  1  0  0  0  0
 21 47  1  0  0  0  0
 22 23  2  0  0  0  0
 22 48  1  0  0  0  0
 23 24  1  0  0  0  0
 23 25  1  0  0  0  0
 25 26  1  0  0  0  0
 27 28  1  0  0  0  0
 27 49  1  0  0  0  0
 27 50  1  0  0  0  0
 28 29  1  0  0  0  0
 28 51  1  0  0  0  0
 28 52  1  0  0  0  0
 29 53  1  0  0  0  0
 30 31  1  0  0  0  0
 30 54  1  0  0  0  0
 32 33  1  0  0  0  0
 32 55  1  0  0  0  0
 32 56  1  0  0  0  0
 33 57  1  0  0  0  0
 33 58  1  0  0  0  0
M  END
