
 OpenBabel03132512093D

 40 44  0  0  0  0  0  0  0  0999 V2000
    1.0724    0.0688   -0.0059 C   0  0  0  0  0  0  0  0  0  0  0  0
    0.5657   -1.2482   -0.5710 C   0  0  0  0  0  0  0  0  0  0  0  0
   -0.3096   -1.4529   -1.5950 C   0  0  0  0  0  0  0  0  0  0  0  0
   -0.3538   -2.7894   -1.8216 N   0  0  0  0  0  0  0  0  0  0  0  0
   -1.0182   -4.1413   -2.7567 C   0  0  0  0  0  0  0  0  0  0  0  0
   -2.0138   -4.1617   -3.9051 C   0  0  0  0  0  0  0  0  0  0  0  0
   -2.5430   -2.9967   -4.3672 C   0  0  0  0  0  0  0  0  0  0  0  0
   -2.1386   -1.6748   -3.7353 C   0  0  0  0  0  0  0  0  0  0  0  0
   -1.3062   -1.6578   -2.7751 O   0  0  0  0  0  0  0  0  0  0  0  0
   -2.7104   -0.4160   -4.2347 N   0  0  0  0  0  0  0  0  0  0  0  0
   -3.6732   -0.4357   -5.3453 C   0  0  0  0  0  0  0  0  0  0  0  0
   -4.6683   -1.3155   -5.3667 C   0  0  0  0  0  0  0  0  0  0  0  0
   -5.5393   -1.3452   -6.3551 C   0  0  0  0  0  0  0  0  0  0  0  0
   -5.4761   -0.5066   -7.3754 C   0  0  0  0  0  0  0  0  0  0  0  0
   -4.5195    0.4008   -7.4315 C   0  0  0  0  0  0  0  0  0  0  0  0
   -4.4060    1.3112   -8.4760 C   0  0  0  0  0  0  0  0  0  0  0  0
   -3.6797    2.4896   -8.1795 C   0  0  0  0  0  0  0  0  0  0  0  0
   -2.6151    2.3783   -7.3147 C   0  0  0  0  0  0  0  0  0  0  0  0
   -2.5669    1.4010   -6.4545 C   0  0  0  0  0  0  0  0  0  0  0  0
   -3.5638    0.4663   -6.3979 C   0  0  0  0  0  0  0  0  0  0  0  0
   -0.1580   -5.4706   -1.9342 C   0  0  0  0  0  0  0  0  0  0  0  0
   -0.2325   -6.9640   -2.2074 C   0  0  0  0  0  0  0  0  0  0  0  0
    0.5828   -4.8108   -0.9992 N   0  0  0  0  0  0  0  0  0  0  0  0
    0.5044   -3.4133   -0.9134 C   0  0  0  0  0  0  0  0  0  0  0  0
    1.0410   -2.3860   -0.1679 S   0  0  0  0  0  0  0  0  0  0  0  0
    0.7157    0.1878    0.9959 H   0  0  0  0  0  0  0  0  0  0  0  0
    0.7157    0.8768   -0.6098 H   0  0  0  0  0  0  0  0  0  0  0  0
    2.1424    0.0688   -0.0059 H   0  0  0  0  0  0  0  0  0  0  0  0
   -0.8590   -0.7006   -2.1215 H   0  0  0  0  0  0  0  0  0  0  0  0
   -2.2985   -5.0922   -4.3499 H   0  0  0  0  0  0  0  0  0  0  0  0
   -2.4390    0.4711   -3.8106 H   0  0  0  0  0  0  0  0  0  0  0  0
   -6.3239   -2.0723   -6.3312 H   0  0  0  0  0  0  0  0  0  0  0  0
   -6.2031   -0.5638   -8.1584 H   0  0  0  0  0  0  0  0  0  0  0  0
   -4.8383    1.1334   -9.4385 H   0  0  0  0  0  0  0  0  0  0  0  0
   -3.9482    3.4310   -8.6115 H   0  0  0  0  0  0  0  0  0  0  0  0
   -1.8235    3.0974   -7.3488 H   0  0  0  0  0  0  0  0  0  0  0  0
   -1.7366    1.3286   -5.7835 H   0  0  0  0  0  0  0  0  0  0  0  0
   -1.2386   -7.3018   -2.0709 H   0  0  0  0  0  0  0  0  0  0  0  0
    0.0755   -7.1583   -3.2135 H   0  0  0  0  0  0  0  0  0  0  0  0
    0.4130   -7.4831   -1.5301 H   0  0  0  0  0  0  0  0  0  0  0  0
  1  2  1  0  0  0  0
  1 26  1  0  0  0  0
  1 27  1  0  0  0  0
  1 28  1  0  0  0  0
  2  3  2  0  0  0  0
  2 25  1  0  0  0  0
  3  4  1  0  0  0  0
  3 29  1  0  0  0  0
  4  5  1  0  0  0  0
  4 24  1  0  0  0  0
  5  6  1  0  0  0  0
  5 21  2  0  0  0  0
  6  7  2  0  0  0  0
  6 30  1  0  0  0  0
  7  8  1  0  0  0  0
  7 12  1  0  0  0  0
  8  9  2  0  0  0  0
  8 10  1  0  0  0  0
 10 11  1  0  0  0  0
 10 31  1  0  0  0  0
 11 12  1  0  0  0  0
 11 20  2  0  0  0  0
 12 13  2  0  0  0  0
 13 14  1  0  0  0  0
 13 32  1  0  0  0  0
 14 15  2  0  0  0  0
 14 33  1  0  0  0  0
 15 16  1  0  0  0  0
 15 20  1  0  0  0  0
 16 17  2  0  0  0  0
 16 34  1  0  0  0  0
 17 18  1  0  0  0  0
 17 35  1  0  0  0  0
 18 19  2  0  0  0  0
 18 36  1  0  0  0  0
 19 20  1  0  0  0  0
 19 37  1  0  0  0  0
 21 22  1  0  0  0  0
 21 23  1  0  0  0  0
 22 38  1  0  0  0  0
 22 39  1  0  0  0  0
 22 40  1  0  0  0  0
 23 24  2  0  0  0  0
 24 25  1  0  0  0  0
M  END
