
 OpenBabel03132514253D

 41 45  0  0  0  0  0  0  0  0999 V2000
    1.0541    0.0482   -0.0689 C   0  0  0  0  0  0  0  0  0  0  0  0
    0.5808   -1.0634   -0.8151 O   0  0  0  0  0  0  0  0  0  0  0  0
    0.9238   -1.1959   -2.1866 C   0  0  0  0  0  0  0  0  0  0  0  0
   -0.0665   -1.5227   -3.1021 C   0  0  0  0  0  0  0  0  0  0  0  0
    0.2383   -1.5819   -4.4574 C   0  0  0  0  0  0  0  0  0  0  0  0
    1.5403   -1.3366   -4.8254 C   0  0  0  0  0  0  0  0  0  0  0  0
    2.5718   -1.0631   -3.9262 C   0  0  0  0  0  0  0  0  0  0  0  0
    2.2372   -0.9747   -2.5811 C   0  0  0  0  0  0  0  0  0  0  0  0
    3.7963   -0.8758   -4.7063 C   0  0  0  0  0  0  0  0  0  0  0  0
    5.0842   -0.6701   -4.3799 C   0  0  0  0  0  0  0  0  0  0  0  0
    5.4951   -0.5942   -2.9185 C   0  0  0  0  0  0  0  0  0  0  0  0
    5.3475   -1.5650   -1.9694 C   0  0  0  0  0  0  0  0  0  0  0  0
    4.7246   -2.9284   -2.2211 C   0  0  0  0  0  0  0  0  0  0  0  0
    3.6015   -3.2577   -1.4881 C   0  0  0  0  0  0  0  0  0  0  0  0
    3.0152   -4.5146   -1.6565 C   0  0  0  0  0  0  0  0  0  0  0  0
    3.5916   -5.3756   -2.5818 C   0  0  0  0  0  0  0  0  0  0  0  0
    4.6964   -4.9578   -3.2879 C   0  0  0  0  0  0  0  0  0  0  0  0
    5.2741   -3.7649   -3.1155 N   0  0  0  0  0  0  0  0  0  0  0  0
    5.8426   -1.1402   -0.7439 N   0  0  0  0  0  0  0  0  0  0  0  0
    6.2811    0.0679   -0.9900 C   0  0  0  0  0  0  0  0  0  0  0  0
    7.0615    1.3171   -0.0826 S   0  0  0  0  0  0  0  0  0  0  0  0
    7.0907    2.3175   -1.5107 C   0  0  0  0  0  0  0  0  0  0  0  0
    6.5452    1.7459   -2.5857 C   0  0  0  0  0  0  0  0  0  0  0  0
    6.0967    0.4598   -2.2815 N   0  0  0  0  0  0  0  0  0  0  0  0
    3.3755   -1.0243   -6.1322 C   0  0  0  0  0  0  0  0  0  0  0  0
    4.0723   -0.9328   -7.1444 O   0  0  0  0  0  0  0  0  0  0  0  0
    2.0485   -1.3021   -6.1286 N   0  0  0  0  0  0  0  0  0  0  0  0
    0.6974   -0.0199    0.9376 H   0  0  0  0  0  0  0  0  0  0  0  0
    0.6975    0.9539   -0.5132 H   0  0  0  0  0  0  0  0  0  0  0  0
    2.1241    0.0482   -0.0689 H   0  0  0  0  0  0  0  0  0  0  0  0
   -1.0613   -1.7286   -2.7661 H   0  0  0  0  0  0  0  0  0  0  0  0
   -0.5115   -1.8096   -5.1860 H   0  0  0  0  0  0  0  0  0  0  0  0
    2.9856   -0.7378   -1.8540 H   0  0  0  0  0  0  0  0  0  0  0  0
    5.8200   -0.5599   -5.1489 H   0  0  0  0  0  0  0  0  0  0  0  0
    3.1837   -2.5559   -0.7968 H   0  0  0  0  0  0  0  0  0  0  0  0
    2.1529   -4.8038   -1.0928 H   0  0  0  0  0  0  0  0  0  0  0  0
    3.1820   -6.3508   -2.7433 H   0  0  0  0  0  0  0  0  0  0  0  0
    5.1152   -5.6233   -4.0135 H   0  0  0  0  0  0  0  0  0  0  0  0
    7.5089    3.3023   -1.5236 H   0  0  0  0  0  0  0  0  0  0  0  0
    6.4630    2.2088   -3.5468 H   0  0  0  0  0  0  0  0  0  0  0  0
    1.4921   -1.4649   -6.9679 H   0  0  0  0  0  0  0  0  0  0  0  0
  1  2  1  0  0  0  0
  1 28  1  0  0  0  0
  1 29  1  0  0  0  0
  1 30  1  0  0  0  0
  2  3  1  0  0  0  0
  3  4  1  0  0  0  0
  3  8  2  0  0  0  0
  4  5  2  0  0  0  0
  4 31  1  0  0  0  0
  5  6  1  0  0  0  0
  5 32  1  0  0  0  0
  6  7  2  0  0  0  0
  6 27  1  0  0  0  0
  7  8  1  0  0  0  0
  7  9  1  0  0  0  0
  8 33  1  0  0  0  0
  9 10  2  0  0  0  0
  9 25  1  0  0  0  0
 10 11  1  0  0  0  0
 10 34  1  0  0  0  0
 11 12  2  0  0  0  0
 11 24  1  0  0  0  0
 12 13  1  0  0  0  0
 12 19  1  0  0  0  0
 13 14  1  0  0  0  0
 13 18  2  0  0  0  0
 14 15  2  0  0  0  0
 14 35  1  0  0  0  0
 15 16  1  0  0  0  0
 15 36  1  0  0  0  0
 16 17  2  0  0  0  0
 16 37  1  0  0  0  0
 17 18  1  0  0  0  0
 17 38  1  0  0  0  0
 19 20  2  0  0  0  0
 20 21  1  0  0  0  0
 20 24  1  0  0  0  0
 21 22  1  0  0  0  0
 22 23  2  0  0  0  0
 22 39  1  0  0  0  0
 23 24  1  0  0  0  0
 23 40  1  0  0  0  0
 25 26  2  0  0  0  0
 25 27  1  0  0  0  0
 27 41  1  0  0  0  0
M  END
