
 OpenBabel03132512093D

 41 44  0  0  0  0  0  0  0  0999 V2000
   -2.5660    0.5090   -0.0040 C   0  0  0  0  0  0  0  0  0  0  0  0
   -1.1180    0.2090    0.0080 C   0  0  0  0  0  0  0  0  0  0  0  0
   -0.7380   -1.0360   -0.0040 N   0  0  0  0  0  0  0  0  0  0  0  0
    0.6860   -1.0210    0.0040 O   0  0  0  0  0  0  0  0  0  0  0  0
    1.0860    0.2710   -0.0070 C   0  0  0  0  0  0  0  0  0  0  0  0
    2.5410    0.5050   -0.0010 C   0  0  0  0  0  0  0  0  0  0  0  0
    0.0050    1.0740    0.0030 C   0  0  0  0  0  0  0  0  0  0  0  0
   -0.0082    2.5939    0.0079 C   0  0  0  0  0  0  0  0  0  0  0  0
   -0.7137    3.0817   -1.1860 N   0  0  0  0  0  0  0  0  0  0  0  0
   -0.2561    3.9274   -2.0865 C   0  0  0  0  0  0  0  0  0  0  0  0
   -1.1994    4.2200   -2.9698 C   0  0  0  0  0  0  0  0  0  0  0  0
   -1.0444    5.1614   -4.1531 C   0  0  0  0  0  0  0  0  0  0  0  0
   -1.9292    6.2305   -4.2422 C   0  0  0  0  0  0  0  0  0  0  0  0
   -1.5284    7.3159   -5.0528 C   0  0  0  0  0  0  0  0  0  0  0  0
   -0.7999    6.9961   -6.1972 N   0  0  0  0  0  0  0  0  0  0  0  0
   -0.1425    5.8560   -6.2213 C   0  0  0  0  0  0  0  0  0  0  0  0
    0.6316    5.4888   -7.4158 N   0  0  0  0  0  0  0  0  0  0  0  0
   -0.1720    4.9896   -5.1230 N   0  0  0  0  0  0  0  0  0  0  0  0
   -2.3062    3.5520   -2.6483 C   0  0  0  0  0  0  0  0  0  0  0  0
   -3.6045    3.4532   -3.1911 C   0  0  0  0  0  0  0  0  0  0  0  0
   -4.5139    2.6541   -2.5922 C   0  0  0  0  0  0  0  0  0  0  0  0
   -4.2111    1.9461   -1.4724 C   0  0  0  0  0  0  0  0  0  0  0  0
   -2.9827    1.9973   -0.9107 C   0  0  0  0  0  0  0  0  0  0  0  0
   -1.9941    2.8030   -1.4791 C   0  0  0  0  0  0  0  0  0  0  0  0
   -2.8178    1.0866    0.8608 H   0  0  0  0  0  0  0  0  0  0  0  0
   -2.8080    1.0638   -0.8863 H   0  0  0  0  0  0  0  0  0  0  0  0
   -3.1200   -0.4064    0.0048 H   0  0  0  0  0  0  0  0  0  0  0  0
    2.8146    1.0725   -0.8659 H   0  0  0  0  0  0  0  0  0  0  0  0
    2.8115    1.0467    0.8812 H   0  0  0  0  0  0  0  0  0  0  0  0
    3.0534   -0.4343   -0.0140 H   0  0  0  0  0  0  0  0  0  0  0  0
   -0.5097    2.9434    0.8862 H   0  0  0  0  0  0  0  0  0  0  0  0
    0.9974    2.9594    0.0021 H   0  0  0  0  0  0  0  0  0  0  0  0
    0.7381    4.3227   -2.1024 H   0  0  0  0  0  0  0  0  0  0  0  0
   -2.8652    6.2310   -3.7237 H   0  0  0  0  0  0  0  0  0  0  0  0
   -1.7706    8.3275   -4.8021 H   0  0  0  0  0  0  0  0  0  0  0  0
    0.6571    6.1161   -8.2197 H   0  0  0  0  0  0  0  0  0  0  0  0
    1.1432    4.6067   -7.4407 H   0  0  0  0  0  0  0  0  0  0  0  0
   -3.8663    4.0061   -4.0690 H   0  0  0  0  0  0  0  0  0  0  0  0
   -5.4963    2.5767   -3.0093 H   0  0  0  0  0  0  0  0  0  0  0  0
   -4.9643    1.3324   -1.0240 H   0  0  0  0  0  0  0  0  0  0  0  0
   -2.7687    1.4227   -0.0338 H   0  0  0  0  0  0  0  0  0  0  0  0
  1  2  1  0  0  0  0
  1 25  1  0  0  0  0
  1 26  1  0  0  0  0
  1 27  1  0  0  0  0
  2  3  2  0  0  0  0
  2  7  1  0  0  0  0
  3  4  1  0  0  0  0
  4  5  1  0  0  0  0
  5  6  1  0  0  0  0
  5  7  2  0  0  0  0
  6 28  1  0  0  0  0
  6 29  1  0  0  0  0
  6 30  1  0  0  0  0
  7  8  1  0  0  0  0
  8  9  1  0  0  0  0
  8 31  1  0  0  0  0
  8 32  1  0  0  0  0
  9 10  1  0  0  0  0
  9 24  1  0  0  0  0
 10 11  2  0  0  0  0
 10 33  1  0  0  0  0
 11 12  1  0  0  0  0
 11 19  1  0  0  0  0
 12 13  1  0  0  0  0
 12 18  2  0  0  0  0
 13 14  2  0  0  0  0
 13 34  1  0  0  0  0
 14 15  1  0  0  0  0
 14 35  1  0  0  0  0
 15 16  2  0  0  0  0
 16 17  1  0  0  0  0
 16 18  1  0  0  0  0
 17 36  1  0  0  0  0
 17 37  1  0  0  0  0
 19 20  1  0  0  0  0
 19 24  2  0  0  0  0
 20 21  2  0  0  0  0
 20 38  1  0  0  0  0
 21 22  1  0  0  0  0
 21 39  1  0  0  0  0
 22 23  2  0  0  0  0
 22 40  1  0  0  0  0
 23 24  1  0  0  0  0
 23 41  1  0  0  0  0
M  END
