
 OpenBabel03132512083D

 64 69  0  0  0  0  0  0  0  0999 V2000
    0.9769    0.0754    0.0615 O   0  0  0  0  0  0  0  0  0  0  0  0
    2.2478    0.0754    0.0615 C   0  0  0  0  0  0  0  0  0  0  0  0
    2.9578   -0.9810   -0.5680 O   0  0  0  0  0  0  0  0  0  0  0  0
    3.0078    1.2063    0.7352 C   0  0  0  0  0  0  0  0  0  0  0  0
    2.6406    2.5263    0.0770 C   0  0  0  0  0  0  0  0  0  0  0  0
    1.1462    2.7649    0.2192 C   0  0  0  0  0  0  0  0  0  0  0  0
    0.7790    2.8144    1.6933 C   0  0  0  0  0  0  0  0  0  0  0  0
    0.6064    4.0428    2.3097 C   0  0  0  0  0  0  0  0  0  0  0  0
    0.5621    3.9742    3.7222 C   0  0  0  0  0  0  0  0  0  0  0  0
    0.3370    2.8706    4.4118 C   0  0  0  0  0  0  0  0  0  0  0  0
   -0.0351    2.9086    5.8851 C   0  0  0  0  0  0  0  0  0  0  0  0
   -1.1833    3.5758    6.2789 C   0  0  0  0  0  0  0  0  0  0  0  0
   -1.2687    3.7953    7.6741 C   0  0  0  0  0  0  0  0  0  0  0  0
   -0.5582    3.1472    8.5792 C   0  0  0  0  0  0  0  0  0  0  0  0
   -0.9243    3.1737   10.0542 C   0  0  0  0  0  0  0  0  0  0  0  0
   -2.1537    2.6987   10.4657 N   0  0  0  0  0  0  0  0  0  0  0  0
   -2.4882    2.7309   11.8229 C   0  0  0  0  0  0  0  0  0  0  0  0
   -3.6677    2.3236   12.5846 N   0  0  0  0  0  0  0  0  0  0  0  0
   -3.4421    2.5822   13.8394 C   0  0  0  0  0  0  0  0  0  0  0  0
   -4.3537    2.3280   14.8982 O   0  0  0  0  0  0  0  0  0  0  0  0
   -5.6203    1.7491   14.6209 C   0  0  0  0  0  0  0  0  0  0  0  0
   -5.4601    0.5464   14.0456 C   0  0  0  0  0  0  0  0  0  0  0  0
   -5.4981    0.6873   12.5981 O   0  0  0  0  0  0  0  0  0  0  0  0
   -6.2725    1.9866   12.3053 C   0  0  0  0  0  0  0  0  0  0  0  0
   -7.6572    1.6386   11.8001 C   0  0  0  0  0  0  0  0  0  0  0  0
   -7.6172    0.4965   10.9572 O   0  0  0  0  0  0  0  0  0  0  0  0
   -8.4334    1.4080   12.8947 C   0  0  0  0  0  0  0  0  0  0  0  0
   -7.9843    2.2345   14.0047 O   0  0  0  0  0  0  0  0  0  0  0  0
   -6.5106    2.5826   13.7214 C   0  0  0  0  0  0  0  0  0  0  0  0
   -2.1725    3.1466   13.9950 N   0  0  0  0  0  0  0  0  0  0  0  0
   -1.5714    3.2449   12.7568 C   0  0  0  0  0  0  0  0  0  0  0  0
   -0.3378    3.7179   12.3241 C   0  0  0  0  0  0  0  0  0  0  0  0
   -0.0163    3.6771   10.9860 C   0  0  0  0  0  0  0  0  0  0  0  0
    1.5705    4.2714   10.4406 Cl  0  0  0  0  0  0  0  0  0  0  0  0
    0.5244    2.4510    8.1180 C   0  0  0  0  0  0  0  0  0  0  0  0
    0.7477    2.3030    6.7704 C   0  0  0  0  0  0  0  0  0  0  0  0
    0.4566    1.6920    3.7292 C   0  0  0  0  0  0  0  0  0  0  0  0
    0.6324    1.6793    2.3665 C   0  0  0  0  0  0  0  0  0  0  0  0
    3.9578   -0.9810   -0.5680 H   0  0  0  0  0  0  0  0  0  0  0  0
    2.7493    1.2412    1.7729 H   0  0  0  0  0  0  0  0  0  0  0  0
    4.0598    1.0383    0.6351 H   0  0  0  0  0  0  0  0  0  0  0  0
    3.1756    3.3223    0.5513 H   0  0  0  0  0  0  0  0  0  0  0  0
    2.8991    2.4914   -0.9607 H   0  0  0  0  0  0  0  0  0  0  0  0
    0.8877    3.6941   -0.2442 H   0  0  0  0  0  0  0  0  0  0  0  0
    0.6112    1.9688   -0.2551 H   0  0  0  0  0  0  0  0  0  0  0  0
    0.5150    4.9603    1.7668 H   0  0  0  0  0  0  0  0  0  0  0  0
    0.7220    4.8794    4.2699 H   0  0  0  0  0  0  0  0  0  0  0  0
   -1.9372    3.8960    5.5905 H   0  0  0  0  0  0  0  0  0  0  0  0
   -1.9568    4.5381    8.0199 H   0  0  0  0  0  0  0  0  0  0  0  0
   -6.1074    1.6779   15.5709 H   0  0  0  0  0  0  0  0  0  0  0  0
   -4.5157    0.1366   14.3374 H   0  0  0  0  0  0  0  0  0  0  0  0
   -6.2473   -0.1063   14.3604 H   0  0  0  0  0  0  0  0  0  0  0  0
   -5.7587    2.6142   11.6074 H   0  0  0  0  0  0  0  0  0  0  0  0
   -8.0562    2.4523   11.2314 H   0  0  0  0  0  0  0  0  0  0  0  0
   -7.2470   -0.2806   11.4662 H   0  0  0  0  0  0  0  0  0  0  0  0
   -8.3561    0.3770   13.1700 H   0  0  0  0  0  0  0  0  0  0  0  0
   -9.4509    1.6461   12.6643 H   0  0  0  0  0  0  0  0  0  0  0  0
   -6.3160    3.6278   13.8417 H   0  0  0  0  0  0  0  0  0  0  0  0
   -1.7578    3.4384   14.8801 H   0  0  0  0  0  0  0  0  0  0  0  0
    0.3615    4.1135   13.0307 H   0  0  0  0  0  0  0  0  0  0  0  0
    1.2077    2.0152    8.8167 H   0  0  0  0  0  0  0  0  0  0  0  0
    1.5596    1.6942    6.4312 H   0  0  0  0  0  0  0  0  0  0  0  0
    0.4127    0.7661    4.2638 H   0  0  0  0  0  0  0  0  0  0  0  0
    0.6513    0.7462    1.8431 H   0  0  0  0  0  0  0  0  0  0  0  0
  1  2  2  0  0  0  0
  2  3  1  0  0  0  0
  2  4  1  0  0  0  0
  3 39  1  0  0  0  0
  4  5  1  0  0  0  0
  4 40  1  0  0  0  0
  4 41  1  0  0  0  0
  5  6  1  0  0  0  0
  5 42  1  0  0  0  0
  5 43  1  0  0  0  0
  6  7  1  0  0  0  0
  6 44  1  0  0  0  0
  6 45  1  0  0  0  0
  7  8  1  0  0  0  0
  7 38  2  0  0  0  0
  8  9  2  0  0  0  0
  8 46  1  0  0  0  0
  9 10  1  0  0  0  0
  9 47  1  0  0  0  0
 10 11  1  0  0  0  0
 10 37  2  0  0  0  0
 11 12  1  0  0  0  0
 11 36  2  0  0  0  0
 12 13  2  0  0  0  0
 12 48  1  0  0  0  0
 13 14  1  0  0  0  0
 13 49  1  0  0  0  0
 14 15  1  0  0  0  0
 14 35  2  0  0  0  0
 15 16  1  0  0  0  0
 15 33  2  0  0  0  0
 16 17  2  0  0  0  0
 17 18  1  0  0  0  0
 17 31  1  0  0  0  0
 18 19  2  0  0  0  0
 19 20  1  0  0  0  0
 19 30  1  0  0  0  0
 20 21  1  0  0  0  0
 21 22  1  0  0  0  0
 21 29  1  0  0  0  0
 21 50  1  0  0  0  0
 22 23  1  0  0  0  0
 22 51  1  0  0  0  0
 22 52  1  0  0  0  0
 23 24  1  0  0  0  0
 24 25  1  0  0  0  0
 24 29  1  0  0  0  0
 24 53  1  0  0  0  0
 25 26  1  0  0  0  0
 25 27  1  0  0  0  0
 25 54  1  0  0  0  0
 26 55  1  0  0  0  0
 27 28  1  0  0  0  0
 27 56  1  0  0  0  0
 27 57  1  0  0  0  0
 28 29  1  0  0  0  0
 29 58  1  0  0  0  0
 30 31  1  0  0  0  0
 30 59  1  0  0  0  0
 31 32  2  0  0  0  0
 32 33  1  0  0  0  0
 32 60  1  0  0  0  0
 33 34  1  0  0  0  0
 35 36  1  0  0  0  0
 35 61  1  0  0  0  0
 36 62  1  0  0  0  0
 37 38  1  0  0  0  0
 37 63  1  0  0  0  0
 38 64  1  0  0  0  0
M  END
