
 OpenBabel03132512093D

 65 69  0  0  0  0  0  0  0  0999 V2000
    1.0462   -0.0792    0.0400 C   0  0  0  0  0  0  0  0  0  0  0  0
    0.5395    0.2793   -1.3475 C   0  0  0  0  0  0  0  0  0  0  0  0
    1.0462   -0.7430   -2.3517 C   0  0  0  0  0  0  0  0  0  0  0  0
    0.5395   -2.1239   -1.9684 C   0  0  0  0  0  0  0  0  0  0  0  0
   -0.9305   -2.1239   -1.9684 N   0  0  0  0  0  0  0  0  0  0  0  0
   -1.6655   -3.0321   -2.8605 C   0  0  0  0  0  0  0  0  0  0  0  0
   -2.9364   -3.0321   -2.8605 O   0  0  0  0  0  0  0  0  0  0  0  0
   -0.9055   -3.9712   -3.7830 C   0  0  0  0  0  0  0  0  0  0  0  0
    0.1425   -4.6369   -3.2220 C   0  0  0  0  0  0  0  0  0  0  0  0
    0.7897   -5.5729   -3.9296 C   0  0  0  0  0  0  0  0  0  0  0  0
    0.4234   -5.8873   -5.2097 C   0  0  0  0  0  0  0  0  0  0  0  0
    1.1562   -6.8717   -5.8763 N   0  0  0  0  0  0  0  0  0  0  0  0
    0.8528   -7.2285   -7.1450 C   0  0  0  0  0  0  0  0  0  0  0  0
    1.6429   -8.2725   -7.8132 N   0  0  0  0  0  0  0  0  0  0  0  0
    1.3216   -8.6680   -9.1921 C   0  0  0  0  0  0  0  0  0  0  0  0
    1.4621   -7.4473  -10.0895 C   0  0  0  0  0  0  0  0  0  0  0  0
    0.4570   -6.3526   -9.7339 C   0  0  0  0  0  0  0  0  0  0  0  0
   -0.9516   -6.9416   -9.8229 C   0  0  0  0  0  0  0  0  0  0  0  0
   -1.9728   -6.0212   -9.4283 O   0  0  0  0  0  0  0  0  0  0  0  0
   -1.0956   -8.1397   -8.9131 C   0  0  0  0  0  0  0  0  0  0  0  0
   -0.0842   -9.2307   -9.2254 C   0  0  0  0  0  0  0  0  0  0  0  0
   -0.2044   -6.6167   -7.8309 C   0  0  0  0  0  0  0  0  0  0  0  0
   -0.6378   -6.8475   -9.0793 N   0  0  0  0  0  0  0  0  0  0  0  0
   -1.6492   -6.0625   -9.3397 C   0  0  0  0  0  0  0  0  0  0  0  0
   -1.9170   -5.2651   -8.2250 C   0  0  0  0  0  0  0  0  0  0  0  0
   -1.0013   -5.5965   -7.2288 N   0  0  0  0  0  0  0  0  0  0  0  0
   -0.6632   -5.2159   -5.8494 C   0  0  0  0  0  0  0  0  0  0  0  0
   -1.3198   -4.2487   -5.0904 C   0  0  0  0  0  0  0  0  0  0  0  0
    1.0461   -3.1462   -2.9727 C   0  0  0  0  0  0  0  0  0  0  0  0
    1.5125   -2.7765   -4.2650 C   0  0  0  0  0  0  0  0  0  0  0  0
    1.5088   -3.7289   -5.2972 C   0  0  0  0  0  0  0  0  0  0  0  0
    1.3467   -4.9891   -5.0194 C   0  0  0  0  0  0  0  0  0  0  0  0
    1.1860   -5.4001   -3.6895 C   0  0  0  0  0  0  0  0  0  0  0  0
    0.8868   -4.4407   -2.6918 C   0  0  0  0  0  0  0  0  0  0  0  0
    0.6895   -1.0512    0.3098 H   0  0  0  0  0  0  0  0  0  0  0  0
    0.6895    0.6405    0.7470 H   0  0  0  0  0  0  0  0  0  0  0  0
    2.1162   -0.0792    0.0400 H   0  0  0  0  0  0  0  0  0  0  0  0
   -0.5305    0.2793   -1.3475 H   0  0  0  0  0  0  0  0  0  0  0  0
    0.8962    1.2514   -1.6173 H   0  0  0  0  0  0  0  0  0  0  0  0
    0.6895   -0.4906   -3.3284 H   0  0  0  0  0  0  0  0  0  0  0  0
    2.1162   -0.7430   -2.3517 H   0  0  0  0  0  0  0  0  0  0  0  0
    0.8962   -2.3763   -0.9917 H   0  0  0  0  0  0  0  0  0  0  0  0
   -1.4405   -1.4937   -1.3494 H   0  0  0  0  0  0  0  0  0  0  0  0
    0.4475   -4.4134   -2.2211 H   0  0  0  0  0  0  0  0  0  0  0  0
    1.6141   -6.0877   -3.4820 H   0  0  0  0  0  0  0  0  0  0  0  0
    2.4142   -8.7225   -7.3202 H   0  0  0  0  0  0  0  0  0  0  0  0
    1.9898   -9.4255   -9.5452 H   0  0  0  0  0  0  0  0  0  0  0  0
    1.2709   -7.7553  -11.0962 H   0  0  0  0  0  0  0  0  0  0  0  0
    2.4517   -7.0542   -9.9845 H   0  0  0  0  0  0  0  0  0  0  0  0
    0.5546   -5.5303  -10.4116 H   0  0  0  0  0  0  0  0  0  0  0  0
    0.6402   -6.0032   -8.7393 H   0  0  0  0  0  0  0  0  0  0  0  0
   -1.0746   -7.2013  -10.8536 H   0  0  0  0  0  0  0  0  0  0  0  0
   -1.8523   -5.7825   -8.4647 H   0  0  0  0  0  0  0  0  0  0  0  0
   -0.9202   -7.8102   -7.9103 H   0  0  0  0  0  0  0  0  0  0  0  0
   -2.0806   -8.5415   -9.0277 H   0  0  0  0  0  0  0  0  0  0  0  0
   -0.2810   -9.6189  -10.2028 H   0  0  0  0  0  0  0  0  0  0  0  0
   -0.1698  -10.0104   -8.4977 H   0  0  0  0  0  0  0  0  0  0  0  0
   -2.1885   -6.0350  -10.2634 H   0  0  0  0  0  0  0  0  0  0  0  0
   -2.6899   -4.5290   -8.1493 H   0  0  0  0  0  0  0  0  0  0  0  0
   -2.1464   -3.7146   -5.5103 H   0  0  0  0  0  0  0  0  0  0  0  0
    1.8627   -1.7823   -4.4487 H   0  0  0  0  0  0  0  0  0  0  0  0
    1.6395   -3.4175   -6.3126 H   0  0  0  0  0  0  0  0  0  0  0  0
    1.3359   -5.7128   -5.8074 H   0  0  0  0  0  0  0  0  0  0  0  0
    1.2888   -6.4329   -3.4293 H   0  0  0  0  0  0  0  0  0  0  0  0
    0.5385   -4.7490   -1.7282 H   0  0  0  0  0  0  0  0  0  0  0  0
  1  2  1  0  0  0  0
  1 35  1  0  0  0  0
  1 36  1  0  0  0  0
  1 37  1  0  0  0  0
  2  3  1  0  0  0  0
  2 38  1  0  0  0  0
  2 39  1  0  0  0  0
  3  4  1  0  0  0  0
  3 40  1  0  0  0  0
  3 41  1  0  0  0  0
  4  5  1  0  0  0  0
  4 29  1  0  0  0  0
  4 42  1  0  0  0  0
  5  6  1  0  0  0  0
  5 43  1  0  0  0  0
  6  7  2  0  0  0  0
  6  8  1  0  0  0  0
  8  9  1  0  0  0  0
  8 28  2  0  0  0  0
  9 10  2  0  0  0  0
  9 44  1  0  0  0  0
 10 11  1  0  0  0  0
 10 45  1  0  0  0  0
 11 12  1  0  0  0  0
 11 27  2  0  0  0  0
 12 13  2  0  0  0  0
 13 14  1  0  0  0  0
 13 22  1  0  0  0  0
 14 15  1  0  0  0  0
 14 46  1  0  0  0  0
 15 16  1  0  0  0  0
 15 21  1  0  0  0  0
 15 47  1  0  0  0  0
 16 17  1  0  0  0  0
 16 48  1  0  0  0  0
 16 49  1  0  0  0  0
 17 18  1  0  0  0  0
 17 50  1  0  0  0  0
 17 51  1  0  0  0  0
 18 19  1  0  0  0  0
 18 20  1  0  0  0  0
 18 52  1  0  0  0  0
 19 53  1  0  0  0  0
 20 21  1  0  0  0  0
 20 54  1  0  0  0  0
 20 55  1  0  0  0  0
 21 56  1  0  0  0  0
 21 57  1  0  0  0  0
 22 23  2  0  0  0  0
 22 26  1  0  0  0  0
 23 24  1  0  0  0  0
 24 25  2  0  0  0  0
 24 58  1  0  0  0  0
 25 26  1  0  0  0  0
 25 59  1  0  0  0  0
 26 27  1  0  0  0  0
 27 28  1  0  0  0  0
 28 60  1  0  0  0  0
 29 30  1  0  0  0  0
 29 34  2  0  0  0  0
 30 31  2  0  0  0  0
 30 61  1  0  0  0  0
 31 32  1  0  0  0  0
 31 62  1  0  0  0  0
 32 33  2  0  0  0  0
 32 63  1  0  0  0  0
 33 34  1  0  0  0  0
 33 64  1  0  0  0  0
 34 65  1  0  0  0  0
M  END
