
 OpenBabel03132512083D

 56 60  0  0  0  0  0  0  0  0999 V2000
    1.0264    0.0611    0.0746 O   0  0  0  0  0  0  0  0  0  0  0  0
    2.2973    0.0611    0.0746 C   0  0  0  0  0  0  0  0  0  0  0  0
    3.0073   -1.1634    0.1879 O   0  0  0  0  0  0  0  0  0  0  0  0
    3.0573    1.3719   -0.0467 C   0  0  0  0  0  0  0  0  0  0  0  0
    4.2174    1.3633    0.9529 C   0  0  0  0  0  0  0  0  0  0  0  0
    5.1528    2.5418    0.6556 C   0  0  0  0  0  0  0  0  0  0  0  0
    4.3194    3.7936    0.5391 C   0  0  0  0  0  0  0  0  0  0  0  0
    2.9788    3.8068    0.3651 C   0  0  0  0  0  0  0  0  0  0  0  0
    2.5410    5.1001    0.2983 C   0  0  0  0  0  0  0  0  0  0  0  0
    1.2906    5.6274    0.1291 C   0  0  0  0  0  0  0  0  0  0  0  0
    1.1016    6.9645    0.0967 C   0  0  0  0  0  0  0  0  0  0  0  0
   -0.2066    7.4884   -0.0786 O   0  0  0  0  0  0  0  0  0  0  0  0
   -0.4100    8.8933   -0.1133 C   0  0  0  0  0  0  0  0  0  0  0  0
    0.0582    9.5056    1.1968 C   0  0  0  0  0  0  0  0  0  0  0  0
   -0.3437   10.8400    1.4833 C   0  0  0  0  0  0  0  0  0  0  0  0
    0.2039   11.5009    2.5949 C   0  0  0  0  0  0  0  0  0  0  0  0
    0.8495   10.8261    3.5002 C   0  0  0  0  0  0  0  0  0  0  0  0
    0.9906    9.4378    3.3738 C   0  0  0  0  0  0  0  0  0  0  0  0
    0.7155    8.8166    2.1313 C   0  0  0  0  0  0  0  0  0  0  0  0
    2.1892    7.8381    0.2351 C   0  0  0  0  0  0  0  0  0  0  0  0
    3.4451    7.3264    0.4042 C   0  0  0  0  0  0  0  0  0  0  0  0
    3.6214    5.9386    0.4364 C   0  0  0  0  0  0  0  0  0  0  0  0
    4.7674    5.1295    0.5933 N   0  0  0  0  0  0  0  0  0  0  0  0
    6.1519    5.5882    0.7765 C   0  0  0  0  0  0  0  0  0  0  0  0
    6.6857    5.0709    2.1024 C   0  0  0  0  0  0  0  0  0  0  0  0
    6.7712    3.6800    2.3891 C   0  0  0  0  0  0  0  0  0  0  0  0
    7.0987    3.2635    3.6899 C   0  0  0  0  0  0  0  0  0  0  0  0
    7.5827    4.1168    4.5438 C   0  0  0  0  0  0  0  0  0  0  0  0
    7.7883    5.4500    4.1649 C   0  0  0  0  0  0  0  0  0  0  0  0
    7.1887    5.9411    2.9796 C   0  0  0  0  0  0  0  0  0  0  0  0
    2.1324    2.5591    0.2583 C   0  0  0  0  0  0  0  0  0  0  0  0
    4.0073   -1.1634    0.1879 H   0  0  0  0  0  0  0  0  0  0  0  0
    3.4271    1.4735   -1.0456 H   0  0  0  0  0  0  0  0  0  0  0  0
    4.7594    0.4450    0.8646 H   0  0  0  0  0  0  0  0  0  0  0  0
    3.8329    1.4545    1.9473 H   0  0  0  0  0  0  0  0  0  0  0  0
    5.6846    2.3680   -0.2565 H   0  0  0  0  0  0  0  0  0  0  0  0
    5.8602    2.6513    1.4509 H   0  0  0  0  0  0  0  0  0  0  0  0
    0.4514    4.9725    0.0210 H   0  0  0  0  0  0  0  0  0  0  0  0
    0.1478    9.3146   -0.9234 H   0  0  0  0  0  0  0  0  0  0  0  0
   -1.4508    9.0997   -0.2515 H   0  0  0  0  0  0  0  0  0  0  0  0
   -1.0566   11.3353    0.8577 H   0  0  0  0  0  0  0  0  0  0  0  0
    0.0901   12.5599    2.6971 H   0  0  0  0  0  0  0  0  0  0  0  0
    1.2733   11.3318    4.3426 H   0  0  0  0  0  0  0  0  0  0  0  0
    1.3045    8.8503    4.2112 H   0  0  0  0  0  0  0  0  0  0  0  0
    1.0296    7.8109    1.9449 H   0  0  0  0  0  0  0  0  0  0  0  0
    2.0374    8.8969    0.2084 H   0  0  0  0  0  0  0  0  0  0  0  0
    4.2852    7.9804    0.5110 H   0  0  0  0  0  0  0  0  0  0  0  0
    6.7594    5.2165   -0.0220 H   0  0  0  0  0  0  0  0  0  0  0  0
    6.1763    6.6579    0.7752 H   0  0  0  0  0  0  0  0  0  0  0  0
    6.5878    2.9580    1.6211 H   0  0  0  0  0  0  0  0  0  0  0  0
    6.9499    2.2439    3.9784 H   0  0  0  0  0  0  0  0  0  0  0  0
    7.8243    3.8003    5.5370 H   0  0  0  0  0  0  0  0  0  0  0  0
    8.3949    6.0933    4.7675 H   0  0  0  0  0  0  0  0  0  0  0  0
    7.1398    6.9931    2.7908 H   0  0  0  0  0  0  0  0  0  0  0  0
    1.4083    2.6713   -0.5213 H   0  0  0  0  0  0  0  0  0  0  0  0
    1.6197    2.3899    1.1821 H   0  0  0  0  0  0  0  0  0  0  0  0
  1  2  2  0  0  0  0
  2  3  1  0  0  0  0
  2  4  1  0  0  0  0
  3 32  1  0  0  0  0
  4  5  1  0  0  0  0
  4 31  1  0  0  0  0
  4 33  1  0  0  0  0
  5  6  1  0  0  0  0
  5 34  1  0  0  0  0
  5 35  1  0  0  0  0
  6  7  1  0  0  0  0
  6 36  1  0  0  0  0
  6 37  1  0  0  0  0
  7  8  2  0  0  0  0
  7 23  1  0  0  0  0
  8  9  1  0  0  0  0
  8 31  1  0  0  0  0
  9 10  1  0  0  0  0
  9 22  2  0  0  0  0
 10 11  2  0  0  0  0
 10 38  1  0  0  0  0
 11 12  1  0  0  0  0
 11 20  1  0  0  0  0
 12 13  1  0  0  0  0
 13 14  1  0  0  0  0
 13 39  1  0  0  0  0
 13 40  1  0  0  0  0
 14 15  1  0  0  0  0
 14 19  2  0  0  0  0
 15 16  2  0  0  0  0
 15 41  1  0  0  0  0
 16 17  1  0  0  0  0
 16 42  1  0  0  0  0
 17 18  2  0  0  0  0
 17 43  1  0  0  0  0
 18 19  1  0  0  0  0
 18 44  1  0  0  0  0
 19 45  1  0  0  0  0
 20 21  2  0  0  0  0
 20 46  1  0  0  0  0
 21 22  1  0  0  0  0
 21 47  1  0  0  0  0
 22 23  1  0  0  0  0
 23 24  1  0  0  0  0
 24 25  1  0  0  0  0
 24 48  1  0  0  0  0
 24 49  1  0  0  0  0
 25 26  1  0  0  0  0
 25 30  2  0  0  0  0
 26 27  2  0  0  0  0
 26 50  1  0  0  0  0
 27 28  1  0  0  0  0
 27 51  1  0  0  0  0
 28 29  2  0  0  0  0
 28 52  1  0  0  0  0
 29 30  1  0  0  0  0
 29 53  1  0  0  0  0
 30 54  1  0  0  0  0
 31 55  1  0  0  0  0
 31 56  1  0  0  0  0
M  END
