
 OpenBabel03142511523D

 59 64  0  0  0  0  0  0  0  0999 V2000
    0.9346    0.0585    0.0480 C   0  0  0  0  0  0  0  0  0  0  0  0
    0.2544    0.0596    1.2261 C   0  0  0  0  0  0  0  0  0  0  0  0
   -1.2656    0.0596    1.2261 C   0  0  0  0  0  0  0  0  0  0  0  0
   -1.7389   -1.0992    1.8966 O   0  0  0  0  0  0  0  0  0  0  0  0
   -1.2656   -2.2592    1.2283 C   0  0  0  0  0  0  0  0  0  0  0  0
   -1.0777   -1.9887   -0.0735 C   0  0  0  0  0  0  0  0  0  0  0  0
   -2.2638   -2.3642   -0.8275 O   0  0  0  0  0  0  0  0  0  0  0  0
   -2.9973   -3.4276    0.0120 C   0  0  0  0  0  0  0  0  0  0  0  0
   -2.7869   -4.7901   -0.6150 C   0  0  0  0  0  0  0  0  0  0  0  0
   -2.8048   -4.7041   -2.0323 O   0  0  0  0  0  0  0  0  0  0  0  0
   -1.8644   -3.8802   -2.7056 C   0  0  0  0  0  0  0  0  0  0  0  0
   -0.5672   -3.9739   -2.6753 N   0  0  0  0  0  0  0  0  0  0  0  0
   -0.0228   -2.9673   -3.5852 C   0  0  0  0  0  0  0  0  0  0  0  0
    1.2735   -2.6012   -3.9598 N   0  0  0  0  0  0  0  0  0  0  0  0
    1.4581   -1.5794   -4.8700 C   0  0  0  0  0  0  0  0  0  0  0  0
    2.8649   -1.1824   -5.2866 C   0  0  0  0  0  0  0  0  0  0  0  0
    3.6972   -2.1072   -5.8849 C   0  0  0  0  0  0  0  0  0  0  0  0
    4.9271   -1.7766   -6.2461 C   0  0  0  0  0  0  0  0  0  0  0  0
    5.4011   -0.5568   -6.0554 C   0  0  0  0  0  0  0  0  0  0  0  0
    6.8180   -0.2245   -6.4941 C   0  0  0  0  0  0  0  0  0  0  0  0
    7.1834   -0.3551   -7.8190 C   0  0  0  0  0  0  0  0  0  0  0  0
    8.4161   -0.0746   -8.2117 C   0  0  0  0  0  0  0  0  0  0  0  0
    9.3366    0.3438   -7.3592 C   0  0  0  0  0  0  0  0  0  0  0  0
    9.0409    0.4972   -6.0185 C   0  0  0  0  0  0  0  0  0  0  0  0
    7.7602    0.2064   -5.5714 C   0  0  0  0  0  0  0  0  0  0  0  0
    4.6236    0.4190   -5.4623 C   0  0  0  0  0  0  0  0  0  0  0  0
    3.3317    0.1053   -5.0658 C   0  0  0  0  0  0  0  0  0  0  0  0
    0.3594   -0.9098   -5.4090 C   0  0  0  0  0  0  0  0  0  0  0  0
    0.6152    0.4155   -6.5695 Cl  0  0  0  0  0  0  0  0  0  0  0  0
   -0.9214   -1.2659   -5.0505 C   0  0  0  0  0  0  0  0  0  0  0  0
   -1.1266   -2.2929   -4.1362 C   0  0  0  0  0  0  0  0  0  0  0  0
   -2.2545   -2.8657   -3.5850 N   0  0  0  0  0  0  0  0  0  0  0  0
   -1.5851   -5.2508   -0.1711 C   0  0  0  0  0  0  0  0  0  0  0  0
   -1.3256   -4.7485    1.1696 O   0  0  0  0  0  0  0  0  0  0  0  0
   -2.1708   -3.4704    1.3281 C   0  0  0  0  0  0  0  0  0  0  0  0
    0.3996    0.0576   -0.8787 H   0  0  0  0  0  0  0  0  0  0  0  0
    2.0046    0.0585    0.0480 H   0  0  0  0  0  0  0  0  0  0  0  0
    0.7894    0.0605    2.1528 H   0  0  0  0  0  0  0  0  0  0  0  0
   -1.6222    0.9337    1.7297 H   0  0  0  0  0  0  0  0  0  0  0  0
   -1.6222    0.0587    0.2173 H   0  0  0  0  0  0  0  0  0  0  0  0
   -0.3536   -2.5119    1.7277 H   0  0  0  0  0  0  0  0  0  0  0  0
   -0.8965   -0.9413   -0.1956 H   0  0  0  0  0  0  0  0  0  0  0  0
   -0.2365   -2.5429   -0.4342 H   0  0  0  0  0  0  0  0  0  0  0  0
   -4.0404   -3.2121    0.1143 H   0  0  0  0  0  0  0  0  0  0  0  0
   -3.5690   -5.4566   -0.3169 H   0  0  0  0  0  0  0  0  0  0  0  0
    3.3442   -3.1022   -6.0586 H   0  0  0  0  0  0  0  0  0  0  0  0
    5.5529   -2.5143   -6.7034 H   0  0  0  0  0  0  0  0  0  0  0  0
    6.4622   -0.6866   -8.5365 H   0  0  0  0  0  0  0  0  0  0  0  0
    8.6740   -0.1893   -9.2438 H   0  0  0  0  0  0  0  0  0  0  0  0
   10.3220    0.5661   -7.7121 H   0  0  0  0  0  0  0  0  0  0  0  0
    9.7900    0.8359   -5.3337 H   0  0  0  0  0  0  0  0  0  0  0  0
    7.5048    0.3120   -4.5377 H   0  0  0  0  0  0  0  0  0  0  0  0
    5.0128    1.4041   -5.3106 H   0  0  0  0  0  0  0  0  0  0  0  0
    2.7090    0.8403   -4.5999 H   0  0  0  0  0  0  0  0  0  0  0  0
   -1.7584   -0.7524   -5.4754 H   0  0  0  0  0  0  0  0  0  0  0  0
   -3.2166   -2.5932   -3.7863 H   0  0  0  0  0  0  0  0  0  0  0  0
   -0.8131   -4.9111   -0.8295 H   0  0  0  0  0  0  0  0  0  0  0  0
   -1.6005   -6.3205   -0.1522 H   0  0  0  0  0  0  0  0  0  0  0  0
   -2.7247   -3.4678    2.2436 H   0  0  0  0  0  0  0  0  0  0  0  0
  1  2  2  0  0  0  0
  1 36  1  0  0  0  0
  1 37  1  0  0  0  0
  2  3  1  0  0  0  0
  2 38  1  0  0  0  0
  3  4  1  0  0  0  0
  3 39  1  0  0  0  0
  3 40  1  0  0  0  0
  4  5  1  0  0  0  0
  5  6  1  0  0  0  0
  5 35  1  0  0  0  0
  5 41  1  0  0  0  0
  6  7  1  0  0  0  0
  6 42  1  0  0  0  0
  6 43  1  0  0  0  0
  7  8  1  0  0  0  0
  8  9  1  0  0  0  0
  8 35  1  0  0  0  0
  8 44  1  0  0  0  0
  9 10  1  0  0  0  0
  9 33  1  0  0  0  0
  9 45  1  0  0  0  0
 10 11  1  0  0  0  0
 11 12  2  0  0  0  0
 11 32  1  0  0  0  0
 12 13  1  0  0  0  0
 13 14  1  0  0  0  0
 13 31  2  0  0  0  0
 14 15  2  0  0  0  0
 15 16  1  0  0  0  0
 15 28  1  0  0  0  0
 16 17  1  0  0  0  0
 16 27  2  0  0  0  0
 17 18  2  0  0  0  0
 17 46  1  0  0  0  0
 18 19  1  0  0  0  0
 18 47  1  0  0  0  0
 19 20  1  0  0  0  0
 19 26  2  0  0  0  0
 20 21  1  0  0  0  0
 20 25  2  0  0  0  0
 21 22  2  0  0  0  0
 21 48  1  0  0  0  0
 22 23  1  0  0  0  0
 22 49  1  0  0  0  0
 23 24  2  0  0  0  0
 23 50  1  0  0  0  0
 24 25  1  0  0  0  0
 24 51  1  0  0  0  0
 25 52  1  0  0  0  0
 26 27  1  0  0  0  0
 26 53  1  0  0  0  0
 27 54  1  0  0  0  0
 28 29  1  0  0  0  0
 28 30  2  0  0  0  0
 30 31  1  0  0  0  0
 30 55  1  0  0  0  0
 31 32  1  0  0  0  0
 32 56  1  0  0  0  0
 33 34  1  0  0  0  0
 33 57  1  0  0  0  0
 33 58  1  0  0  0  0
 34 35  1  0  0  0  0
 35 59  1  0  0  0  0
M  END
