
 OpenBabel03132512093D

 54 56  0  0  0  0  0  0  0  0999 V2000
    0.9142   -0.0513    0.0003 C   0  0  0  0  0  0  0  0  0  0  0  0
    0.4408    0.3287   -1.2834 O   0  0  0  0  0  0  0  0  0  0  0  0
    0.9142    1.6304   -1.5962 C   0  0  0  0  0  0  0  0  0  0  0  0
    0.4075    2.6171   -0.5568 C   0  0  0  0  0  0  0  0  0  0  0  0
    0.9142    2.2103    0.8173 C   0  0  0  0  0  0  0  0  0  0  0  0
    1.7593    3.1310    1.5912 N   0  0  0  0  0  0  0  0  0  0  0  0
    0.6072    1.0742    1.2971 O   0  0  0  0  0  0  0  0  0  0  0  0
    0.8975    3.9647   -0.8806 N   0  0  0  0  0  0  0  0  0  0  0  0
    0.4075    4.9188    0.1245 C   0  0  0  0  0  0  0  0  0  0  0  0
    2.3675    3.9647   -0.8806 C   0  0  0  0  0  0  0  0  0  0  0  0
    2.8742    3.5579    0.4935 C   0  0  0  0  0  0  0  0  0  0  0  0
    2.8161    2.2424    0.8558 C   0  0  0  0  0  0  0  0  0  0  0  0
    3.1833    1.8564    2.1650 C   0  0  0  0  0  0  0  0  0  0  0  0
    3.1558    0.5132    2.6369 C   0  0  0  0  0  0  0  0  0  0  0  0
    2.7554   -0.5595    1.7150 N   0  0  0  0  0  0  0  0  0  0  0  0
    2.7198   -1.9535    2.1804 C   0  0  0  0  0  0  0  0  0  0  0  0
    3.5254   -2.9124    1.6016 C   0  0  0  0  0  0  0  0  0  0  0  0
    3.5212   -4.2243    2.0576 C   0  0  0  0  0  0  0  0  0  0  0  0
    2.6857   -4.5684    3.1190 C   0  0  0  0  0  0  0  0  0  0  0  0
    1.8801   -3.6063    3.6983 C   0  0  0  0  0  0  0  0  0  0  0  0
    0.8705   -4.0128    5.0436 Cl  0  0  0  0  0  0  0  0  0  0  0  0
    1.9036   -2.3154    3.2212 C   0  0  0  0  0  0  0  0  0  0  0  0
    1.1296   -1.3795    3.8076 F   0  0  0  0  0  0  0  0  0  0  0  0
    3.4775    0.2059    3.8703 N   0  0  0  0  0  0  0  0  0  0  0  0
    3.8676    1.2301    4.6900 C   0  0  0  0  0  0  0  0  0  0  0  0
    3.9581    2.4933    4.3766 N   0  0  0  0  0  0  0  0  0  0  0  0
    3.6105    2.8320    3.0937 C   0  0  0  0  0  0  0  0  0  0  0  0
    3.6852    4.1805    2.6789 C   0  0  0  0  0  0  0  0  0  0  0  0
    3.3115    4.5318    1.4116 C   0  0  0  0  0  0  0  0  0  0  0  0
    3.3649    5.8947    1.0166 O   0  0  0  0  0  0  0  0  0  0  0  0
    2.9787    6.2687   -0.2977 C   0  0  0  0  0  0  0  0  0  0  0  0
    0.5575   -1.0322    0.2360 H   0  0  0  0  0  0  0  0  0  0  0  0
    0.5575    0.6432    0.7320 H   0  0  0  0  0  0  0  0  0  0  0  0
    1.9842   -0.0513    0.0003 H   0  0  0  0  0  0  0  0  0  0  0  0
    1.9842    1.6304   -1.5962 H   0  0  0  0  0  0  0  0  0  0  0  0
    0.5575    1.9168   -2.5635 H   0  0  0  0  0  0  0  0  0  0  0  0
   -0.6625    2.6171   -0.5568 H   0  0  0  0  0  0  0  0  0  0  0  0
    2.0993    2.8580    2.5134 H   0  0  0  0  0  0  0  0  0  0  0  0
    2.0057    4.0428    1.2062 H   0  0  0  0  0  0  0  0  0  0  0  0
    0.7642    4.6325    1.0919 H   0  0  0  0  0  0  0  0  0  0  0  0
    0.7642    5.8997   -0.1111 H   0  0  0  0  0  0  0  0  0  0  0  0
   -0.6625    4.9189    0.1245 H   0  0  0  0  0  0  0  0  0  0  0  0
    2.7242    3.2701   -1.6122 H   0  0  0  0  0  0  0  0  0  0  0  0
    2.7242    4.9455   -1.1163 H   0  0  0  0  0  0  0  0  0  0  0  0
    2.4933    1.5056    0.1502 H   0  0  0  0  0  0  0  0  0  0  0  0
    2.5023   -0.3366    0.7524 H   0  0  0  0  0  0  0  0  0  0  0  0
    4.1643   -2.6408    0.7875 H   0  0  0  0  0  0  0  0  0  0  0  0
    4.1500   -4.9599    1.6010 H   0  0  0  0  0  0  0  0  0  0  0  0
    2.6681   -5.5740    3.4840 H   0  0  0  0  0  0  0  0  0  0  0  0
    4.1258    0.9669    5.6945 H   0  0  0  0  0  0  0  0  0  0  0  0
    4.0353    4.9291    3.3586 H   0  0  0  0  0  0  0  0  0  0  0  0
    3.6027    5.7688   -1.0087 H   0  0  0  0  0  0  0  0  0  0  0  0
    1.9582    5.9918   -0.4619 H   0  0  0  0  0  0  0  0  0  0  0  0
    3.0839    7.3273   -0.4128 H   0  0  0  0  0  0  0  0  0  0  0  0
  1  2  1  0  0  0  0
  1 32  1  0  0  0  0
  1 33  1  0  0  0  0
  1 34  1  0  0  0  0
  2  3  1  0  0  0  0
  3  4  1  0  0  0  0
  3 35  1  0  0  0  0
  3 36  1  0  0  0  0
  4  5  1  0  0  0  0
  4  8  1  0  0  0  0
  4 37  1  0  0  0  0
  5  6  1  0  0  0  0
  5  7  2  0  0  0  0
  6 38  1  0  0  0  0
  6 39  1  0  0  0  0
  8  9  1  0  0  0  0
  8 10  1  0  0  0  0
  9 40  1  0  0  0  0
  9 41  1  0  0  0  0
  9 42  1  0  0  0  0
 10 11  1  0  0  0  0
 10 43  1  0  0  0  0
 10 44  1  0  0  0  0
 11 12  1  0  0  0  0
 11 29  2  0  0  0  0
 12 13  2  0  0  0  0
 12 45  1  0  0  0  0
 13 14  1  0  0  0  0
 13 27  1  0  0  0  0
 14 15  1  0  0  0  0
 14 24  2  0  0  0  0
 15 16  1  0  0  0  0
 15 46  1  0  0  0  0
 16 17  1  0  0  0  0
 16 22  2  0  0  0  0
 17 18  2  0  0  0  0
 17 47  1  0  0  0  0
 18 19  1  0  0  0  0
 18 48  1  0  0  0  0
 19 20  2  0  0  0  0
 19 49  1  0  0  0  0
 20 21  1  0  0  0  0
 20 22  1  0  0  0  0
 22 23  1  0  0  0  0
 24 25  1  0  0  0  0
 25 26  2  0  0  0  0
 25 50  1  0  0  0  0
 26 27  1  0  0  0  0
 27 28  2  0  0  0  0
 28 29  1  0  0  0  0
 28 51  1  0  0  0  0
 29 30  1  0  0  0  0
 30 31  1  0  0  0  0
 31 52  1  0  0  0  0
 31 53  1  0  0  0  0
 31 54  1  0  0  0  0
M  END
