
 OpenBabel03132512083D

 67 72  0  0  0  0  0  0  0  0999 V2000
    1.0317    0.0014    0.0948 C   0  0  0  0  0  0  0  0  0  0  0  0
    0.5417   -0.6167    1.3353 N   0  0  0  0  0  0  0  0  0  0  0  0
   -0.9283   -0.6167    1.3353 C   0  0  0  0  0  0  0  0  0  0  0  0
    1.1284   -2.2729    1.4370 S   0  0  0  0  0  0  0  0  0  0  0  0
    0.5250   -3.2151    0.0142 C   0  0  0  0  0  0  0  0  0  0  0  0
    2.6588   -2.2729    1.4370 O   0  0  0  0  0  0  0  0  0  0  0  0
    0.6033   -2.9353    2.7662 N   0  0  0  0  0  0  0  0  0  0  0  0
    0.9584   -4.3257    3.0847 C   0  0  0  0  0  0  0  0  0  0  0  0
   -0.0251   -5.1571    3.5947 C   0  0  0  0  0  0  0  0  0  0  0  0
    0.4754   -6.3397    4.1888 C   0  0  0  0  0  0  0  0  0  0  0  0
    1.6872   -6.8244    3.9871 C   0  0  0  0  0  0  0  0  0  0  0  0
    2.0533   -8.2496    4.3678 C   0  0  0  0  0  0  0  0  0  0  0  0
    1.3064   -9.2859    3.8323 C   0  0  0  0  0  0  0  0  0  0  0  0
    1.4678  -10.5181    4.5089 C   0  0  0  0  0  0  0  0  0  0  0  0
    2.4682  -10.7997    5.3237 C   0  0  0  0  0  0  0  0  0  0  0  0
    2.7774  -12.2258    5.7493 C   0  0  0  0  0  0  0  0  0  0  0  0
    3.1813  -13.1965    4.8542 N   0  0  0  0  0  0  0  0  0  0  0  0
    3.5311  -14.4663    5.3230 C   0  0  0  0  0  0  0  0  0  0  0  0
    3.9885  -15.6942    4.6744 N   0  0  0  0  0  0  0  0  0  0  0  0
    4.1717  -16.5905    5.5993 C   0  0  0  0  0  0  0  0  0  0  0  0
    4.6161  -17.9190    5.3667 O   0  0  0  0  0  0  0  0  0  0  0  0
    4.8956  -18.3528    4.0438 C   0  0  0  0  0  0  0  0  0  0  0  0
    5.8668  -17.5912    3.5149 C   0  0  0  0  0  0  0  0  0  0  0  0
    5.2837  -16.3997    2.9175 O   0  0  0  0  0  0  0  0  0  0  0  0
    3.8163  -16.7440    2.5981 C   0  0  0  0  0  0  0  0  0  0  0  0
    3.6661  -16.9494    1.1051 C   0  0  0  0  0  0  0  0  0  0  0  0
    4.4716  -16.0295    0.3831 O   0  0  0  0  0  0  0  0  0  0  0  0
    4.0375  -18.2324    0.8409 C   0  0  0  0  0  0  0  0  0  0  0  0
    3.7173  -19.0853    1.9753 O   0  0  0  0  0  0  0  0  0  0  0  0
    3.6459  -18.1640    3.2078 C   0  0  0  0  0  0  0  0  0  0  0  0
    3.8679  -16.0568    6.8553 N   0  0  0  0  0  0  0  0  0  0  0  0
    3.4701  -14.7446    6.6998 C   0  0  0  0  0  0  0  0  0  0  0  0
    3.0621  -13.7545    7.5863 C   0  0  0  0  0  0  0  0  0  0  0  0
    2.7245  -12.5057    7.1149 C   0  0  0  0  0  0  0  0  0  0  0  0
    2.2165  -11.2384    8.2570 Cl  0  0  0  0  0  0  0  0  0  0  0  0
    3.2109   -9.7395    5.7639 C   0  0  0  0  0  0  0  0  0  0  0  0
    3.0227   -8.4811    5.2454 C   0  0  0  0  0  0  0  0  0  0  0  0
    2.5947   -5.9752    3.4172 C   0  0  0  0  0  0  0  0  0  0  0  0
    2.2074   -4.7497    2.9313 C   0  0  0  0  0  0  0  0  0  0  0  0
    0.6750    1.0083    0.0330 H   0  0  0  0  0  0  0  0  0  0  0  0
    0.6750   -0.5556   -0.7463 H   0  0  0  0  0  0  0  0  0  0  0  0
    2.1017    0.0014    0.0948 H   0  0  0  0  0  0  0  0  0  0  0  0
   -1.2850   -1.1737    0.4942 H   0  0  0  0  0  0  0  0  0  0  0  0
   -1.2850   -1.0666    2.2382 H   0  0  0  0  0  0  0  0  0  0  0  0
   -1.2850    0.3902    1.2735 H   0  0  0  0  0  0  0  0  0  0  0  0
    0.8817   -2.7652   -0.8887 H   0  0  0  0  0  0  0  0  0  0  0  0
    0.8817   -4.2220    0.0760 H   0  0  0  0  0  0  0  0  0  0  0  0
   -0.5450   -3.2151    0.0142 H   0  0  0  0  0  0  0  0  0  0  0  0
   -1.0686   -4.9260    3.5440 H   0  0  0  0  0  0  0  0  0  0  0  0
   -0.1731   -6.8789    4.8474 H   0  0  0  0  0  0  0  0  0  0  0  0
    0.6655   -9.1656    2.9840 H   0  0  0  0  0  0  0  0  0  0  0  0
    0.7279  -11.2743    4.3492 H   0  0  0  0  0  0  0  0  0  0  0  0
    5.2022  -19.3779    4.0582 H   0  0  0  0  0  0  0  0  0  0  0  0
    6.5510  -17.3031    4.2854 H   0  0  0  0  0  0  0  0  0  0  0  0
    6.3864  -18.1482    2.7635 H   0  0  0  0  0  0  0  0  0  0  0  0
    3.1399  -15.9931    2.9495 H   0  0  0  0  0  0  0  0  0  0  0  0
    2.6485  -16.7938    0.8133 H   0  0  0  0  0  0  0  0  0  0  0  0
    5.4304  -16.1543    0.6383 H   0  0  0  0  0  0  0  0  0  0  0  0
    5.0922  -18.2639    0.6637 H   0  0  0  0  0  0  0  0  0  0  0  0
    3.5141  -18.5820   -0.0244 H   0  0  0  0  0  0  0  0  0  0  0  0
    2.7618  -18.3358    3.7854 H   0  0  0  0  0  0  0  0  0  0  0  0
    3.9302  -16.5563    7.7425 H   0  0  0  0  0  0  0  0  0  0  0  0
    3.0105  -13.9628    8.6346 H   0  0  0  0  0  0  0  0  0  0  0  0
    3.9493   -9.8919    6.5232 H   0  0  0  0  0  0  0  0  0  0  0  0
    3.6630   -7.6803    5.5515 H   0  0  0  0  0  0  0  0  0  0  0  0
    3.6212   -6.2691    3.3487 H   0  0  0  0  0  0  0  0  0  0  0  0
    2.9187   -4.1313    2.4248 H   0  0  0  0  0  0  0  0  0  0  0  0
  1  2  1  0  0  0  0
  1 40  1  0  0  0  0
  1 41  1  0  0  0  0
  1 42  1  0  0  0  0
  2  3  1  0  0  0  0
  2  4  1  0  0  0  0
  3 43  1  0  0  0  0
  3 44  1  0  0  0  0
  3 45  1  0  0  0  0
  4  5  1  0  0  0  0
  4  6  2  0  0  0  0
  4  7  2  0  0  0  0
  5 46  1  0  0  0  0
  5 47  1  0  0  0  0
  5 48  1  0  0  0  0
  7  8  1  0  0  0  0
  8  9  1  0  0  0  0
  8 39  2  0  0  0  0
  9 10  2  0  0  0  0
  9 49  1  0  0  0  0
 10 11  1  0  0  0  0
 10 50  1  0  0  0  0
 11 12  1  0  0  0  0
 11 38  2  0  0  0  0
 12 13  1  0  0  0  0
 12 37  2  0  0  0  0
 13 14  2  0  0  0  0
 13 51  1  0  0  0  0
 14 15  1  0  0  0  0
 14 52  1  0  0  0  0
 15 16  1  0  0  0  0
 15 36  2  0  0  0  0
 16 17  1  0  0  0  0
 16 34  2  0  0  0  0
 17 18  2  0  0  0  0
 18 19  1  0  0  0  0
 18 32  1  0  0  0  0
 19 20  2  0  0  0  0
 20 21  1  0  0  0  0
 20 31  1  0  0  0  0
 21 22  1  0  0  0  0
 22 23  1  0  0  0  0
 22 30  1  0  0  0  0
 22 53  1  0  0  0  0
 23 24  1  0  0  0  0
 23 54  1  0  0  0  0
 23 55  1  0  0  0  0
 24 25  1  0  0  0  0
 25 26  1  0  0  0  0
 25 30  1  0  0  0  0
 25 56  1  0  0  0  0
 26 27  1  0  0  0  0
 26 28  1  0  0  0  0
 26 57  1  0  0  0  0
 27 58  1  0  0  0  0
 28 29  1  0  0  0  0
 28 59  1  0  0  0  0
 28 60  1  0  0  0  0
 29 30  1  0  0  0  0
 30 61  1  0  0  0  0
 31 32  1  0  0  0  0
 31 62  1  0  0  0  0
 32 33  2  0  0  0  0
 33 34  1  0  0  0  0
 33 63  1  0  0  0  0
 34 35  1  0  0  0  0
 36 37  1  0  0  0  0
 36 64  1  0  0  0  0
 37 65  1  0  0  0  0
 38 39  1  0  0  0  0
 38 66  1  0  0  0  0
 39 67  1  0  0  0  0
M  END
