
 OpenBabel03132512083D

 71 77  0  0  0  0  0  0  0  0999 V2000
    1.0292   -0.0660    0.0692 C   0  0  0  0  0  0  0  0  0  0  0  0
    0.4259   -1.6750    0.6378 S   0  0  0  0  0  0  0  0  0  0  0  0
    0.9360   -1.9388    2.0564 O   0  0  0  0  0  0  0  0  0  0  0  0
   -1.1493   -1.6750    0.6378 N   0  0  0  0  0  0  0  0  0  0  0  0
   -1.8843   -0.7075    1.4652 C   0  0  0  0  0  0  0  0  0  0  0  0
   -3.0299   -1.1699    2.0915 C   0  0  0  0  0  0  0  0  0  0  0  0
   -3.9121   -0.1433    2.5036 C   0  0  0  0  0  0  0  0  0  0  0  0
   -3.5740    1.1264    2.6358 C   0  0  0  0  0  0  0  0  0  0  0  0
   -4.4464    2.1126    3.3953 C   0  0  0  0  0  0  0  0  0  0  0  0
   -4.7676    1.7834    4.7018 C   0  0  0  0  0  0  0  0  0  0  0  0
   -5.8700    2.5033    5.2200 C   0  0  0  0  0  0  0  0  0  0  0  0
   -6.3431    3.6228    4.7032 C   0  0  0  0  0  0  0  0  0  0  0  0
   -7.2909    4.5244    5.4773 C   0  0  0  0  0  0  0  0  0  0  0  0
   -6.9227    5.1679    6.6421 N   0  0  0  0  0  0  0  0  0  0  0  0
   -7.8198    6.0434    7.2613 C   0  0  0  0  0  0  0  0  0  0  0  0
   -7.7609    6.8667    8.4681 N   0  0  0  0  0  0  0  0  0  0  0  0
   -8.8933    7.4977    8.5772 C   0  0  0  0  0  0  0  0  0  0  0  0
   -9.2240    8.3985    9.6238 O   0  0  0  0  0  0  0  0  0  0  0  0
   -8.2839    8.6659   10.6539 C   0  0  0  0  0  0  0  0  0  0  0  0
   -7.1657    9.1874   10.1241 C   0  0  0  0  0  0  0  0  0  0  0  0
   -6.2572    8.1158    9.7462 O   0  0  0  0  0  0  0  0  0  0  0  0
   -6.6386    6.8956   10.6061 C   0  0  0  0  0  0  0  0  0  0  0  0
   -5.6002    6.7071   11.6923 C   0  0  0  0  0  0  0  0  0  0  0  0
   -4.2981    6.9958   11.2046 O   0  0  0  0  0  0  0  0  0  0  0  0
   -5.9344    7.5454   12.7117 C   0  0  0  0  0  0  0  0  0  0  0  0
   -7.3793    7.7075   12.7674 O   0  0  0  0  0  0  0  0  0  0  0  0
   -7.9102    7.3779   11.3594 C   0  0  0  0  0  0  0  0  0  0  0  0
   -9.7376    7.1608    7.5149 N   0  0  0  0  0  0  0  0  0  0  0  0
   -9.0874    6.2624    6.6937 C   0  0  0  0  0  0  0  0  0  0  0  0
   -9.4403    5.6064    5.5200 C   0  0  0  0  0  0  0  0  0  0  0  0
   -8.5477    4.7500    4.9154 C   0  0  0  0  0  0  0  0  0  0  0  0
   -9.0009    3.9242    3.4051 Cl  0  0  0  0  0  0  0  0  0  0  0  0
   -5.9345    3.9271    3.4344 C   0  0  0  0  0  0  0  0  0  0  0  0
   -4.9554    3.1913    2.8117 C   0  0  0  0  0  0  0  0  0  0  0  0
   -2.3971    1.5062    2.0526 C   0  0  0  0  0  0  0  0  0  0  0  0
   -1.5435    0.5750    1.5122 C   0  0  0  0  0  0  0  0  0  0  0  0
    1.0126   -2.9361   -0.4407 N   0  0  0  0  0  0  0  0  0  0  0  0
    2.4826   -2.9361   -0.4407 C   0  0  0  0  0  0  0  0  0  0  0  0
    3.1264   -1.9417    0.5410 C   0  0  0  0  0  0  0  0  0  0  0  0
    4.1820   -3.0233    0.8216 C   0  0  0  0  0  0  0  0  0  0  0  0
    3.1269   -4.0573    0.3951 C   0  0  0  0  0  0  0  0  0  0  0  0
    0.6726    0.7007    0.7248 H   0  0  0  0  0  0  0  0  0  0  0  0
    0.6726    0.1184   -0.9226 H   0  0  0  0  0  0  0  0  0  0  0  0
    2.0992   -0.0660    0.0692 H   0  0  0  0  0  0  0  0  0  0  0  0
   -3.2297   -2.2092    2.2493 H   0  0  0  0  0  0  0  0  0  0  0  0
   -4.9235   -0.4146    2.7235 H   0  0  0  0  0  0  0  0  0  0  0  0
   -4.2308    1.0511    5.2679 H   0  0  0  0  0  0  0  0  0  0  0  0
   -6.3540    2.1137    6.0911 H   0  0  0  0  0  0  0  0  0  0  0  0
   -8.7250    9.3528   11.3457 H   0  0  0  0  0  0  0  0  0  0  0  0
   -7.4181    9.7609    9.2567 H   0  0  0  0  0  0  0  0  0  0  0  0
   -6.6907    9.8186   10.8458 H   0  0  0  0  0  0  0  0  0  0  0  0
   -6.7434    6.0062   10.0205 H   0  0  0  0  0  0  0  0  0  0  0  0
   -5.6052    5.6930   12.0337 H   0  0  0  0  0  0  0  0  0  0  0  0
   -4.2663    7.9406   10.8785 H   0  0  0  0  0  0  0  0  0  0  0  0
   -5.4795    8.4996   12.5461 H   0  0  0  0  0  0  0  0  0  0  0  0
   -5.5878    7.1345   13.6368 H   0  0  0  0  0  0  0  0  0  0  0  0
   -8.7360    6.6983   11.3920 H   0  0  0  0  0  0  0  0  0  0  0  0
  -10.6810    7.5206    7.3704 H   0  0  0  0  0  0  0  0  0  0  0  0
  -10.4054    5.7669    5.0865 H   0  0  0  0  0  0  0  0  0  0  0  0
   -6.3837    4.7502    2.9189 H   0  0  0  0  0  0  0  0  0  0  0  0
   -4.5998    3.4902    1.8478 H   0  0  0  0  0  0  0  0  0  0  0  0
   -2.1372    2.5435    2.0166 H   0  0  0  0  0  0  0  0  0  0  0  0
   -0.5954    0.8862    1.1258 H   0  0  0  0  0  0  0  0  0  0  0  0
    0.6726   -3.8428   -0.1202 H   0  0  0  0  0  0  0  0  0  0  0  0
    2.6285   -2.8628   -1.4981 H   0  0  0  0  0  0  0  0  0  0  0  0
    3.3969   -0.9494    0.2459 H   0  0  0  0  0  0  0  0  0  0  0  0
    2.5161   -1.6829    1.3809 H   0  0  0  0  0  0  0  0  0  0  0  0
    4.6890   -3.0878    1.7616 H   0  0  0  0  0  0  0  0  0  0  0  0
    5.0457   -2.9795    0.1915 H   0  0  0  0  0  0  0  0  0  0  0  0
    2.5678   -4.6244    1.1098 H   0  0  0  0  0  0  0  0  0  0  0  0
    3.5090   -4.8781   -0.1751 H   0  0  0  0  0  0  0  0  0  0  0  0
  1  2  1  0  0  0  0
  1 42  1  0  0  0  0
  1 43  1  0  0  0  0
  1 44  1  0  0  0  0
  2  3  2  0  0  0  0
  2  4  2  0  0  0  0
  2 37  1  0  0  0  0
  4  5  1  0  0  0  0
  5  6  1  0  0  0  0
  5 36  2  0  0  0  0
  6  7  2  0  0  0  0
  6 45  1  0  0  0  0
  7  8  1  0  0  0  0
  7 46  1  0  0  0  0
  8  9  1  0  0  0  0
  8 35  2  0  0  0  0
  9 10  1  0  0  0  0
  9 34  2  0  0  0  0
 10 11  2  0  0  0  0
 10 47  1  0  0  0  0
 11 12  1  0  0  0  0
 11 48  1  0  0  0  0
 12 13  1  0  0  0  0
 12 33  2  0  0  0  0
 13 14  1  0  0  0  0
 13 31  2  0  0  0  0
 14 15  2  0  0  0  0
 15 16  1  0  0  0  0
 15 29  1  0  0  0  0
 16 17  2  0  0  0  0
 17 18  1  0  0  0  0
 17 28  1  0  0  0  0
 18 19  1  0  0  0  0
 19 20  1  0  0  0  0
 19 27  1  0  0  0  0
 19 49  1  0  0  0  0
 20 21  1  0  0  0  0
 20 50  1  0  0  0  0
 20 51  1  0  0  0  0
 21 22  1  0  0  0  0
 22 23  1  0  0  0  0
 22 27  1  0  0  0  0
 22 52  1  0  0  0  0
 23 24  1  0  0  0  0
 23 25  1  0  0  0  0
 23 53  1  0  0  0  0
 24 54  1  0  0  0  0
 25 26  1  0  0  0  0
 25 55  1  0  0  0  0
 25 56  1  0  0  0  0
 26 27  1  0  0  0  0
 27 57  1  0  0  0  0
 28 29  1  0  0  0  0
 28 58  1  0  0  0  0
 29 30  2  0  0  0  0
 30 31  1  0  0  0  0
 30 59  1  0  0  0  0
 31 32  1  0  0  0  0
 33 34  1  0  0  0  0
 33 60  1  0  0  0  0
 34 61  1  0  0  0  0
 35 36  1  0  0  0  0
 35 62  1  0  0  0  0
 36 63  1  0  0  0  0
 37 38  1  0  0  0  0
 37 64  1  0  0  0  0
 38 39  1  0  0  0  0
 38 41  1  0  0  0  0
 38 65  1  0  0  0  0
 39 40  1  0  0  0  0
 39 66  1  0  0  0  0
 39 67  1  0  0  0  0
 40 41  1  0  0  0  0
 40 68  1  0  0  0  0
 40 69  1  0  0  0  0
 41 70  1  0  0  0  0
 41 71  1  0  0  0  0
M  END
