
 OpenBabel03132512093D

 54 58  0  0  0  0  0  0  0  0999 V2000
    2.1760    0.0100    0.0000 O   0  0  0  0  0  0  0  0  0  0  0  0
    0.9260    0.0650   -0.0010 C   0  0  0  0  0  0  0  0  0  0  0  0
    0.1530    1.2540    0.0010 C   0  0  0  0  0  0  0  0  0  0  0  0
   -1.2040    1.1910    0.0000 C   0  0  0  0  0  0  0  0  0  0  0  0
   -2.0048    2.4829    0.0010 C   0  0  0  0  0  0  0  0  0  0  0  0
   -2.9468    2.9333    0.9762 C   0  0  0  0  0  0  0  0  0  0  0  0
   -3.5117    4.1455    0.7275 N   0  0  0  0  0  0  0  0  0  0  0  0
   -2.9018    4.5047   -0.4652 N   0  0  0  0  0  0  0  0  0  0  0  0
   -3.1042    5.6620   -1.1516 C   0  0  0  0  0  0  0  0  0  0  0  0
   -2.3886    5.8450   -2.3356 C   0  0  0  0  0  0  0  0  0  0  0  0
   -2.5207    7.1445   -3.1129 C   0  0  0  0  0  0  0  0  0  0  0  0
   -2.1121    8.2956   -2.4597 C   0  0  0  0  0  0  0  0  0  0  0  0
   -2.4799    9.4912   -3.1209 C   0  0  0  0  0  0  0  0  0  0  0  0
   -2.8432    9.5648   -4.3884 C   0  0  0  0  0  0  0  0  0  0  0  0
   -2.8928   10.8030   -5.0819 O   0  0  0  0  0  0  0  0  0  0  0  0
   -3.2891   10.8379   -6.4450 C   0  0  0  0  0  0  0  0  0  0  0  0
   -2.3347    9.9919   -7.2720 C   0  0  0  0  0  0  0  0  0  0  0  0
   -2.3653    8.6041   -6.7882 N   0  0  0  0  0  0  0  0  0  0  0  0
   -1.2561    7.8179   -7.3583 C   0  0  0  0  0  0  0  0  0  0  0  0
   -1.4011    7.7626   -8.8625 C   0  0  0  0  0  0  0  0  0  0  0  0
   -2.6596    7.2012   -9.2352 O   0  0  0  0  0  0  0  0  0  0  0  0
   -3.7219    7.9943   -8.7051 C   0  0  0  0  0  0  0  0  0  0  0  0
   -3.6688    8.0375   -7.1896 C   0  0  0  0  0  0  0  0  0  0  0  0
   -3.1691    8.3846   -4.9971 C   0  0  0  0  0  0  0  0  0  0  0  0
   -2.9609    7.1825   -4.3651 C   0  0  0  0  0  0  0  0  0  0  0  0
   -1.5161    4.7885   -2.8237 C   0  0  0  0  0  0  0  0  0  0  0  0
   -1.3048    3.6765   -2.0924 N   0  0  0  0  0  0  0  0  0  0  0  0
   -1.9891    3.4887   -0.9365 C   0  0  0  0  0  0  0  0  0  0  0  0
   -1.8940   -0.0500   -0.0020 C   0  0  0  0  0  0  0  0  0  0  0  0
   -1.1330   -1.1820    0.0020 C   0  0  0  0  0  0  0  0  0  0  0  0
    0.2170   -1.1080   -0.0000 N   0  0  0  0  0  0  0  0  0  0  0  0
    0.6414    2.2060    0.0033 H   0  0  0  0  0  0  0  0  0  0  0  0
   -3.1915    2.3561    1.8433 H   0  0  0  0  0  0  0  0  0  0  0  0
   -3.7873    6.4050   -0.7963 H   0  0  0  0  0  0  0  0  0  0  0  0
   -1.5678    8.2818   -1.5386 H   0  0  0  0  0  0  0  0  0  0  0  0
   -2.4624   10.3989   -2.5546 H   0  0  0  0  0  0  0  0  0  0  0  0
   -4.2818   10.4497   -6.5380 H   0  0  0  0  0  0  0  0  0  0  0  0
   -3.2668   11.8481   -6.7971 H   0  0  0  0  0  0  0  0  0  0  0  0
   -2.6333   10.0183   -8.2991 H   0  0  0  0  0  0  0  0  0  0  0  0
   -1.3420   10.3802   -7.1790 H   0  0  0  0  0  0  0  0  0  0  0  0
   -1.2801    6.8250   -6.9600 H   0  0  0  0  0  0  0  0  0  0  0  0
   -0.3245    8.2799   -7.1061 H   0  0  0  0  0  0  0  0  0  0  0  0
   -1.3455    8.7596   -9.2471 H   0  0  0  0  0  0  0  0  0  0  0  0
   -0.6154    7.1599   -9.2678 H   0  0  0  0  0  0  0  0  0  0  0  0
   -4.6524    7.5558   -8.9997 H   0  0  0  0  0  0  0  0  0  0  0  0
   -3.6377    8.9906   -9.0861 H   0  0  0  0  0  0  0  0  0  0  0  0
   -3.7824    7.0523   -6.7880 H   0  0  0  0  0  0  0  0  0  0  0  0
   -4.4611    8.6527   -6.8171 H   0  0  0  0  0  0  0  0  0  0  0  0
   -3.5923    8.3974   -5.9798 H   0  0  0  0  0  0  0  0  0  0  0  0
   -3.1553    6.2687   -4.8867 H   0  0  0  0  0  0  0  0  0  0  0  0
   -1.0366    4.8955   -3.7743 H   0  0  0  0  0  0  0  0  0  0  0  0
   -2.9630   -0.0952   -0.0064 H   0  0  0  0  0  0  0  0  0  0  0  0
   -1.6100   -2.1398    0.0068 H   0  0  0  0  0  0  0  0  0  0  0  0
    0.7422   -1.9824   -0.0008 H   0  0  0  0  0  0  0  0  0  0  0  0
  1  2  2  0  0  0  0
  2  3  1  0  0  0  0
  2 31  1  0  0  0  0
  3  4  2  0  0  0  0
  3 32  1  0  0  0  0
  4  5  1  0  0  0  0
  4 29  1  0  0  0  0
  5  6  1  0  0  0  0
  5 28  2  0  0  0  0
  6  7  2  0  0  0  0
  6 33  1  0  0  0  0
  7  8  1  0  0  0  0
  8  9  1  0  0  0  0
  8 28  1  0  0  0  0
  9 10  2  0  0  0  0
  9 34  1  0  0  0  0
 10 11  1  0  0  0  0
 10 26  1  0  0  0  0
 11 12  1  0  0  0  0
 11 25  2  0  0  0  0
 12 13  2  0  0  0  0
 12 35  1  0  0  0  0
 13 14  1  0  0  0  0
 13 36  1  0  0  0  0
 14 15  1  0  0  0  0
 14 24  2  0  0  0  0
 15 16  1  0  0  0  0
 16 17  1  0  0  0  0
 16 37  1  0  0  0  0
 16 38  1  0  0  0  0
 17 18  1  0  0  0  0
 17 39  1  0  0  0  0
 17 40  1  0  0  0  0
 18 19  1  0  0  0  0
 18 23  1  0  0  0  0
 19 20  1  0  0  0  0
 19 41  1  0  0  0  0
 19 42  1  0  0  0  0
 20 21  1  0  0  0  0
 20 43  1  0  0  0  0
 20 44  1  0  0  0  0
 21 22  1  0  0  0  0
 22 23  1  0  0  0  0
 22 45  1  0  0  0  0
 22 46  1  0  0  0  0
 23 47  1  0  0  0  0
 23 48  1  0  0  0  0
 24 25  1  0  0  0  0
 24 49  1  0  0  0  0
 25 50  1  0  0  0  0
 26 27  2  0  0  0  0
 26 51  1  0  0  0  0
 27 28  1  0  0  0  0
 29 30  2  0  0  0  0
 29 52  1  0  0  0  0
 30 31  1  0  0  0  0
 30 53  1  0  0  0  0
 31 54  1  0  0  0  0
M  END
