
 OpenBabel03132512093D

 41 44  0  0  0  0  0  0  0  0999 V2000
    0.9444    0.0739    0.0381 N   0  0  0  0  0  0  0  0  0  0  0  0
    2.2053    0.0739    0.0381 C   0  0  0  0  0  0  0  0  0  0  0  0
    3.7253    0.0739    0.0381 C   0  0  0  0  0  0  0  0  0  0  0  0
    4.4083   -1.1216    0.0380 C   0  0  0  0  0  0  0  0  0  0  0  0
    5.7985   -1.1273    0.0491 C   0  0  0  0  0  0  0  0  0  0  0  0
    6.7465   -2.1301    0.0570 N   0  0  0  0  0  0  0  0  0  0  0  0
    8.0191   -1.5511    0.0673 C   0  0  0  0  0  0  0  0  0  0  0  0
    7.9221   -0.2538    0.0666 C   0  0  0  0  0  0  0  0  0  0  0  0
    9.0808    0.7299    0.0759 C   0  0  0  0  0  0  0  0  0  0  0  0
   10.2775    0.3021    0.0854 O   0  0  0  0  0  0  0  0  0  0  0  0
    8.8262    2.1269    0.0739 O   0  0  0  0  0  0  0  0  0  0  0  0
    6.5012    0.0905    0.0553 C   0  0  0  0  0  0  0  0  0  0  0  0
    5.7980    1.2989    0.0501 C   0  0  0  0  0  0  0  0  0  0  0  0
    4.4174    1.2852    0.0381 C   0  0  0  0  0  0  0  0  0  0  0  0
    3.6480    2.5960    0.0248 C   0  0  0  0  0  0  0  0  0  0  0  0
    2.7472    2.9032    1.0823 C   0  0  0  0  0  0  0  0  0  0  0  0
    1.8309    3.9557    0.9230 C   0  0  0  0  0  0  0  0  0  0  0  0
    1.9807    4.8075   -0.0483 C   0  0  0  0  0  0  0  0  0  0  0  0
    0.9818    5.9392   -0.2263 C   0  0  0  0  0  0  0  0  0  0  0  0
    0.9667    5.4036    1.1961 C   0  0  0  0  0  0  0  0  0  0  0  0
    0.6208    4.0265    1.1797 O   0  0  0  0  0  0  0  0  0  0  0  0
    0.8865    7.3666   -0.7689 C   0  0  0  0  0  0  0  0  0  0  0  0
    0.0876    6.2414   -1.4313 C   0  0  0  0  0  0  0  0  0  0  0  0
    3.0619    4.6832   -0.9310 C   0  0  0  0  0  0  0  0  0  0  0  0
    3.8014    3.4760   -0.9661 C   0  0  0  0  0  0  0  0  0  0  0  0
    3.8694   -2.0459    0.0295 H   0  0  0  0  0  0  0  0  0  0  0  0
    6.5506   -3.1311    0.0556 H   0  0  0  0  0  0  0  0  0  0  0  0
    8.9397   -2.0962    0.0747 H   0  0  0  0  0  0  0  0  0  0  0  0
    9.5885    2.7741    0.0801 H   0  0  0  0  0  0  0  0  0  0  0  0
    6.3268    2.2291    0.0555 H   0  0  0  0  0  0  0  0  0  0  0  0
    2.7675    2.3378    1.9905 H   0  0  0  0  0  0  0  0  0  0  0  0
    1.0093    4.0568    1.6011 H   0  0  0  0  0  0  0  0  0  0  0  0
    1.9365    5.5226    1.6323 H   0  0  0  0  0  0  0  0  0  0  0  0
    0.2470    5.9453    1.7736 H   0  0  0  0  0  0  0  0  0  0  0  0
   -0.2855    3.9153    0.7721 H   0  0  0  0  0  0  0  0  0  0  0  0
    0.6445    8.3208   -0.3496 H   0  0  0  0  0  0  0  0  0  0  0  0
    1.7207    7.8020   -1.2784 H   0  0  0  0  0  0  0  0  0  0  0  0
    0.0035    5.8574   -2.4265 H   0  0  0  0  0  0  0  0  0  0  0  0
   -0.9770    6.2092   -1.3291 H   0  0  0  0  0  0  0  0  0  0  0  0
    3.3272    5.4957   -1.5747 H   0  0  0  0  0  0  0  0  0  0  0  0
    4.4724    3.2729   -1.7744 H   0  0  0  0  0  0  0  0  0  0  0  0
  1  2  3  0  0  0  0
  2  3  1  0  0  0  0
  3  4  1  0  0  0  0
  3 14  2  0  0  0  0
  4  5  2  0  0  0  0
  4 26  1  0  0  0  0
  5  6  1  0  0  0  0
  5 12  1  0  0  0  0
  6  7  1  0  0  0  0
  6 27  1  0  0  0  0
  7  8  2  0  0  0  0
  7 28  1  0  0  0  0
  8  9  1  0  0  0  0
  8 12  1  0  0  0  0
  9 10  2  0  0  0  0
  9 11  1  0  0  0  0
 11 29  1  0  0  0  0
 12 13  2  0  0  0  0
 13 14  1  0  0  0  0
 13 30  1  0  0  0  0
 14 15  1  0  0  0  0
 15 16  1  0  0  0  0
 15 25  2  0  0  0  0
 16 17  2  0  0  0  0
 16 31  1  0  0  0  0
 17 18  1  0  0  0  0
 17 32  1  0  0  0  0
 18 19  1  0  0  0  0
 18 24  2  0  0  0  0
 19 20  1  0  0  0  0
 19 22  1  0  0  0  0
 19 23  1  0  0  0  0
 20 21  1  0  0  0  0
 20 33  1  0  0  0  0
 20 34  1  0  0  0  0
 21 35  1  0  0  0  0
 22 23  1  0  0  0  0
 22 36  1  0  0  0  0
 22 37  1  0  0  0  0
 23 38  1  0  0  0  0
 23 39  1  0  0  0  0
 24 25  1  0  0  0  0
 24 40  1  0  0  0  0
 25 41  1  0  0  0  0
M  END
