
 OpenBabel03132512093D

 60 64  0  0  0  0  0  0  0  0999 V2000
    0.9604   -0.0798    0.0454 O   0  0  0  0  0  0  0  0  0  0  0  0
    2.2313   -0.0798    0.0454 C   0  0  0  0  0  0  0  0  0  0  0  0
    2.9413    0.9188   -0.6722 O   0  0  0  0  0  0  0  0  0  0  0  0
    4.3613    0.9188   -0.6722 C   0  0  0  0  0  0  0  0  0  0  0  0
    4.8735   -0.4641   -1.0814 O   0  0  0  0  0  0  0  0  0  0  0  0
    4.4433   -0.7562   -2.4126 C   0  0  0  0  0  0  0  0  0  0  0  0
    2.9277   -0.6403   -2.4190 C   0  0  0  0  0  0  0  0  0  0  0  0
    2.2143   -1.6515   -2.7083 O   0  0  0  0  0  0  0  0  0  0  0  0
    2.3090    0.5977   -2.1016 O   0  0  0  0  0  0  0  0  0  0  0  0
    4.9307    0.1578   -3.3966 C   0  0  0  0  0  0  0  0  0  0  0  0
    4.4685   -0.2369   -4.6800 O   0  0  0  0  0  0  0  0  0  0  0  0
    4.4208    1.5659   -3.0811 C   0  0  0  0  0  0  0  0  0  0  0  0
    3.0026    1.5871   -3.1502 O   0  0  0  0  0  0  0  0  0  0  0  0
    4.8741    1.9605   -1.6721 C   0  0  0  0  0  0  0  0  0  0  0  0
    4.3531    3.2394   -1.3415 O   0  0  0  0  0  0  0  0  0  0  0  0
    2.9913   -1.1488    0.8136 C   0  0  0  0  0  0  0  0  0  0  0  0
    4.0000   -1.0396    1.7427 C   0  0  0  0  0  0  0  0  0  0  0  0
    4.2703   -2.2602    2.3018 N   0  0  0  0  0  0  0  0  0  0  0  0
    3.4678   -3.2056    1.7057 C   0  0  0  0  0  0  0  0  0  0  0  0
    3.4443   -4.5915    1.8950 C   0  0  0  0  0  0  0  0  0  0  0  0
    2.5688   -5.2972    1.0939 C   0  0  0  0  0  0  0  0  0  0  0  0
    2.5024   -7.0346    1.2486 Cl  0  0  0  0  0  0  0  0  0  0  0  0
    1.7419   -4.6876    0.1341 C   0  0  0  0  0  0  0  0  0  0  0  0
    0.8131   -5.5373   -0.7178 C   0  0  0  0  0  0  0  0  0  0  0  0
    0.9517   -5.6329   -2.0926 C   0  0  0  0  0  0  0  0  0  0  0  0
   -0.1186   -6.3023   -2.7316 C   0  0  0  0  0  0  0  0  0  0  0  0
   -0.9871   -7.0841   -2.1163 C   0  0  0  0  0  0  0  0  0  0  0  0
   -1.8924   -8.0345   -2.8827 C   0  0  0  0  0  0  0  0  0  0  0  0
   -3.1269   -7.4993   -2.4587 O   0  0  0  0  0  0  0  0  0  0  0  0
   -1.8226   -9.5541   -2.6507 C   0  0  0  0  0  0  0  0  0  0  0  0
   -2.4648   -9.7859   -4.0293 C   0  0  0  0  0  0  0  0  0  0  0  0
   -2.0559   -8.3581   -4.4115 C   0  0  0  0  0  0  0  0  0  0  0  0
   -1.0282   -6.9924   -0.7527 C   0  0  0  0  0  0  0  0  0  0  0  0
   -0.0961   -6.2526   -0.0658 C   0  0  0  0  0  0  0  0  0  0  0  0
    1.7730   -3.3126   -0.0359 C   0  0  0  0  0  0  0  0  0  0  0  0
    2.6395   -2.5444    0.7621 C   0  0  0  0  0  0  0  0  0  0  0  0
    4.7140    1.1576    0.3093 H   0  0  0  0  0  0  0  0  0  0  0  0
    4.7836   -1.7380   -2.6679 H   0  0  0  0  0  0  0  0  0  0  0  0
    1.3119    0.6740   -2.1059 H   0  0  0  0  0  0  0  0  0  0  0  0
    6.0007    0.1553   -3.3869 H   0  0  0  0  0  0  0  0  0  0  0  0
    3.4685   -0.2347   -4.6893 H   0  0  0  0  0  0  0  0  0  0  0  0
    4.8191    2.2588   -3.7926 H   0  0  0  0  0  0  0  0  0  0  0  0
    2.6269    0.9404   -2.4863 H   0  0  0  0  0  0  0  0  0  0  0  0
    5.9429    1.9963   -1.6361 H   0  0  0  0  0  0  0  0  0  0  0  0
    3.3541    3.2109   -1.3738 H   0  0  0  0  0  0  0  0  0  0  0  0
    4.5028   -0.1289    1.9933 H   0  0  0  0  0  0  0  0  0  0  0  0
    4.9533   -2.4389    3.0380 H   0  0  0  0  0  0  0  0  0  0  0  0
    4.0676   -5.0757    2.6175 H   0  0  0  0  0  0  0  0  0  0  0  0
    1.7920   -5.2364   -2.6233 H   0  0  0  0  0  0  0  0  0  0  0  0
   -0.2322   -6.1657   -3.7868 H   0  0  0  0  0  0  0  0  0  0  0  0
   -3.8749   -8.0153   -2.8759 H   0  0  0  0  0  0  0  0  0  0  0  0
   -0.8954  -10.0238   -2.3964 H   0  0  0  0  0  0  0  0  0  0  0  0
   -2.4140   -9.8993   -1.8284 H   0  0  0  0  0  0  0  0  0  0  0  0
   -3.4782  -10.1168   -4.1214 H   0  0  0  0  0  0  0  0  0  0  0  0
   -1.9975  -10.5516   -4.6125 H   0  0  0  0  0  0  0  0  0  0  0  0
   -2.6764   -7.7551   -5.0410 H   0  0  0  0  0  0  0  0  0  0  0  0
   -1.1491   -8.2944   -4.9760 H   0  0  0  0  0  0  0  0  0  0  0  0
   -1.7972   -7.5043   -0.2128 H   0  0  0  0  0  0  0  0  0  0  0  0
   -0.1030   -6.2528    1.0042 H   0  0  0  0  0  0  0  0  0  0  0  0
    1.1463   -2.8419   -0.7642 H   0  0  0  0  0  0  0  0  0  0  0  0
  1  2  2  0  0  0  0
  2  3  1  0  0  0  0
  2 16  1  0  0  0  0
  3  4  1  0  0  0  0
  4  5  1  0  0  0  0
  4 14  1  0  0  0  0
  4 37  1  0  0  0  0
  5  6  1  0  0  0  0
  6  7  1  0  0  0  0
  6 10  1  0  0  0  0
  6 38  1  0  0  0  0
  7  8  2  0  0  0  0
  7  9  1  0  0  0  0
  9 39  1  0  0  0  0
 10 11  1  0  0  0  0
 10 12  1  0  0  0  0
 10 40  1  0  0  0  0
 11 41  1  0  0  0  0
 12 13  1  0  0  0  0
 12 14  1  0  0  0  0
 12 42  1  0  0  0  0
 13 43  1  0  0  0  0
 14 15  1  0  0  0  0
 14 44  1  0  0  0  0
 15 45  1  0  0  0  0
 16 17  2  0  0  0  0
 16 36  1  0  0  0  0
 17 18  1  0  0  0  0
 17 46  1  0  0  0  0
 18 19  1  0  0  0  0
 18 47  1  0  0  0  0
 19 20  1  0  0  0  0
 19 36  2  0  0  0  0
 20 21  2  0  0  0  0
 20 48  1  0  0  0  0
 21 22  1  0  0  0  0
 21 23  1  0  0  0  0
 23 24  1  0  0  0  0
 23 35  2  0  0  0  0
 24 25  1  0  0  0  0
 24 34  2  0  0  0  0
 25 26  2  0  0  0  0
 25 49  1  0  0  0  0
 26 27  1  0  0  0  0
 26 50  1  0  0  0  0
 27 28  1  0  0  0  0
 27 33  2  0  0  0  0
 28 29  1  0  0  0  0
 28 30  1  0  0  0  0
 28 32  1  0  0  0  0
 29 51  1  0  0  0  0
 30 31  1  0  0  0  0
 30 52  1  0  0  0  0
 30 53  1  0  0  0  0
 31 32  1  0  0  0  0
 31 54  1  0  0  0  0
 31 55  1  0  0  0  0
 32 56  1  0  0  0  0
 32 57  1  0  0  0  0
 33 34  1  0  0  0  0
 33 58  1  0  0  0  0
 34 59  1  0  0  0  0
 35 36  1  0  0  0  0
 35 60  1  0  0  0  0
M  END
