
 OpenBabel03132512093D

 68 71  0  0  0  0  0  0  0  0999 V2000
    1.0564    0.0088   -0.0821 C   0  0  0  0  0  0  0  0  0  0  0  0
    0.5497   -1.4235   -0.1297 C   0  0  0  0  0  0  0  0  0  0  0  0
    1.0397   -2.1560    1.0469 N   0  0  0  0  0  0  0  0  0  0  0  0
    0.5497   -3.5411    1.0009 C   0  0  0  0  0  0  0  0  0  0  0  0
    1.0564   -4.2160   -0.2633 C   0  0  0  0  0  0  0  0  0  0  0  0
    2.5097   -2.1560    1.0469 C   0  0  0  0  0  0  0  0  0  0  0  0
    3.0164   -2.8309   -0.2173 C   0  0  0  0  0  0  0  0  0  0  0  0
    2.5264   -2.0984   -1.3939 N   0  0  0  0  0  0  0  0  0  0  0  0
    3.4817   -1.5080   -2.3424 C   0  0  0  0  0  0  0  0  0  0  0  0
    3.0580   -0.8747   -3.3596 O   0  0  0  0  0  0  0  0  0  0  0  0
    4.9761   -1.6547   -2.1066 C   0  0  0  0  0  0  0  0  0  0  0  0
    5.6299   -2.8052   -1.7410 C   0  0  0  0  0  0  0  0  0  0  0  0
    5.1248   -4.1874   -1.5090 C   0  0  0  0  0  0  0  0  0  0  0  0
    6.9525   -2.4997   -1.6129 N   0  0  0  0  0  0  0  0  0  0  0  0
    7.1707   -1.1762   -1.9108 C   0  0  0  0  0  0  0  0  0  0  0  0
    8.5120   -0.4614   -1.8937 C   0  0  0  0  0  0  0  0  0  0  0  0
    9.5077   -0.8811   -2.6938 C   0  0  0  0  0  0  0  0  0  0  0  0
    9.3015   -2.0023   -3.6595 C   0  0  0  0  0  0  0  0  0  0  0  0
    8.2938   -2.6932   -3.8190 O   0  0  0  0  0  0  0  0  0  0  0  0
   10.4485   -2.1306   -4.3710 N   0  0  0  0  0  0  0  0  0  0  0  0
   11.4106   -1.2037   -3.9550 C   0  0  0  0  0  0  0  0  0  0  0  0
   10.8828   -0.4322   -2.9188 C   0  0  0  0  0  0  0  0  0  0  0  0
   11.7274    0.4940   -2.3206 C   0  0  0  0  0  0  0  0  0  0  0  0
   13.0255    0.6414   -2.7927 C   0  0  0  0  0  0  0  0  0  0  0  0
   13.5000   -0.1025   -3.8637 C   0  0  0  0  0  0  0  0  0  0  0  0
   12.6837   -1.0604   -4.4547 C   0  0  0  0  0  0  0  0  0  0  0  0
   13.1794   -1.9163   -5.6088 C   0  0  0  0  0  0  0  0  0  0  0  0
   14.1667   -2.8535   -5.3462 C   0  0  0  0  0  0  0  0  0  0  0  0
   14.5973   -3.7473   -6.2301 N   0  0  0  0  0  0  0  0  0  0  0  0
   14.0033   -3.7254   -7.4266 C   0  0  0  0  0  0  0  0  0  0  0  0
   12.9910   -2.8506   -7.7910 C   0  0  0  0  0  0  0  0  0  0  0  0
   12.3945   -2.9067   -9.1757 C   0  0  0  0  0  0  0  0  0  0  0  0
   12.5896   -1.9327   -6.8563 C   0  0  0  0  0  0  0  0  0  0  0  0
    5.9573   -0.6164   -2.2269 C   0  0  0  0  0  0  0  0  0  0  0  0
    5.6859    0.8224   -2.5870 C   0  0  0  0  0  0  0  0  0  0  0  0
    0.6997    0.4839    0.8078 H   0  0  0  0  0  0  0  0  0  0  0  0
    0.6997    0.5419   -0.9385 H   0  0  0  0  0  0  0  0  0  0  0  0
    2.1264    0.0088   -0.0821 H   0  0  0  0  0  0  0  0  0  0  0  0
   -0.5203   -1.4235   -0.1297 H   0  0  0  0  0  0  0  0  0  0  0  0
    0.9064   -1.8986   -1.0196 H   0  0  0  0  0  0  0  0  0  0  0  0
    0.9064   -4.0743    1.8573 H   0  0  0  0  0  0  0  0  0  0  0  0
   -0.5203   -3.5411    1.0009 H   0  0  0  0  0  0  0  0  0  0  0  0
    2.1264   -4.2161   -0.2633 H   0  0  0  0  0  0  0  0  0  0  0  0
    0.6997   -5.2243   -0.2968 H   0  0  0  0  0  0  0  0  0  0  0  0
    0.6997   -3.6829   -1.1197 H   0  0  0  0  0  0  0  0  0  0  0  0
    2.8664   -1.1477    1.0804 H   0  0  0  0  0  0  0  0  0  0  0  0
    2.8664   -2.6891    1.9033 H   0  0  0  0  0  0  0  0  0  0  0  0
    4.0864   -2.8309   -0.2173 H   0  0  0  0  0  0  0  0  0  0  0  0
    2.6597   -3.8391   -0.2508 H   0  0  0  0  0  0  0  0  0  0  0  0
    1.5236   -1.9999   -1.5521 H   0  0  0  0  0  0  0  0  0  0  0  0
    4.4006   -4.1750   -0.7215 H   0  0  0  0  0  0  0  0  0  0  0  0
    4.6711   -4.5564   -2.4051 H   0  0  0  0  0  0  0  0  0  0  0  0
    5.9400   -4.8236   -1.2340 H   0  0  0  0  0  0  0  0  0  0  0  0
    7.6780   -3.1607   -1.3349 H   0  0  0  0  0  0  0  0  0  0  0  0
    8.6637    0.3759   -1.2450 H   0  0  0  0  0  0  0  0  0  0  0  0
   10.5917   -2.8147   -5.1138 H   0  0  0  0  0  0  0  0  0  0  0  0
   11.3807    1.0897   -1.5022 H   0  0  0  0  0  0  0  0  0  0  0  0
   13.6759    1.3463   -2.3185 H   0  0  0  0  0  0  0  0  0  0  0  0
   14.4907    0.0605   -4.2335 H   0  0  0  0  0  0  0  0  0  0  0  0
   14.6091   -2.8572   -4.3720 H   0  0  0  0  0  0  0  0  0  0  0  0
   14.3327   -4.4345   -8.1570 H   0  0  0  0  0  0  0  0  0  0  0  0
   13.1600   -2.7264   -9.9013 H   0  0  0  0  0  0  0  0  0  0  0  0
   11.9670   -3.8736   -9.3411 H   0  0  0  0  0  0  0  0  0  0  0  0
   11.6336   -2.1600   -9.2669 H   0  0  0  0  0  0  0  0  0  0  0  0
   11.8194   -1.2289   -7.0935 H   0  0  0  0  0  0  0  0  0  0  0  0
    5.2293    0.8681   -3.5536 H   0  0  0  0  0  0  0  0  0  0  0  0
    5.0286    1.2538   -1.8612 H   0  0  0  0  0  0  0  0  0  0  0  0
    6.6073    1.3662   -2.6016 H   0  0  0  0  0  0  0  0  0  0  0  0
  1  2  1  0  0  0  0
  1 36  1  0  0  0  0
  1 37  1  0  0  0  0
  1 38  1  0  0  0  0
  2  3  1  0  0  0  0
  2 39  1  0  0  0  0
  2 40  1  0  0  0  0
  3  4  1  0  0  0  0
  3  6  1  0  0  0  0
  4  5  1  0  0  0  0
  4 41  1  0  0  0  0
  4 42  1  0  0  0  0
  5 43  1  0  0  0  0
  5 44  1  0  0  0  0
  5 45  1  0  0  0  0
  6  7  1  0  0  0  0
  6 46  1  0  0  0  0
  6 47  1  0  0  0  0
  7  8  1  0  0  0  0
  7 48  1  0  0  0  0
  7 49  1  0  0  0  0
  8  9  1  0  0  0  0
  8 50  1  0  0  0  0
  9 10  2  0  0  0  0
  9 11  1  0  0  0  0
 11 12  2  0  0  0  0
 11 34  1  0  0  0  0
 12 13  1  0  0  0  0
 12 14  1  0  0  0  0
 13 51  1  0  0  0  0
 13 52  1  0  0  0  0
 13 53  1  0  0  0  0
 14 15  1  0  0  0  0
 14 54  1  0  0  0  0
 15 16  1  0  0  0  0
 15 34  2  0  0  0  0
 16 17  2  0  0  0  0
 16 55  1  0  0  0  0
 17 18  1  0  0  0  0
 17 22  1  0  0  0  0
 18 19  2  0  0  0  0
 18 20  1  0  0  0  0
 20 21  1  0  0  0  0
 20 56  1  0  0  0  0
 21 22  1  0  0  0  0
 21 26  2  0  0  0  0
 22 23  2  0  0  0  0
 23 24  1  0  0  0  0
 23 57  1  0  0  0  0
 24 25  2  0  0  0  0
 24 58  1  0  0  0  0
 25 26  1  0  0  0  0
 25 59  1  0  0  0  0
 26 27  1  0  0  0  0
 27 28  1  0  0  0  0
 27 33  2  0  0  0  0
 28 29  2  0  0  0  0
 28 60  1  0  0  0  0
 29 30  1  0  0  0  0
 30 31  2  0  0  0  0
 30 61  1  0  0  0  0
 31 32  1  0  0  0  0
 31 33  1  0  0  0  0
 32 62  1  0  0  0  0
 32 63  1  0  0  0  0
 32 64  1  0  0  0  0
 33 65  1  0  0  0  0
 34 35  1  0  0  0  0
 35 66  1  0  0  0  0
 35 67  1  0  0  0  0
 35 68  1  0  0  0  0
M  END
