
 OpenBabel03132512083D

 51 54  0  0  0  0  0  0  0  0999 V2000
    1.0061    0.0902    0.0428 O   0  0  0  0  0  0  0  0  0  0  0  0
    2.2770    0.0902    0.0428 C   0  0  0  0  0  0  0  0  0  0  0  0
    2.9870   -0.7435    0.9468 O   0  0  0  0  0  0  0  0  0  0  0  0
    3.0370    0.9826   -0.9249 C   0  0  0  0  0  0  0  0  0  0  0  0
    4.2103    0.6043   -1.5355 C   0  0  0  0  0  0  0  0  0  0  0  0
    4.7215    1.6388   -2.2731 N   0  0  0  0  0  0  0  0  0  0  0  0
    3.9077    2.7369   -2.1155 C   0  0  0  0  0  0  0  0  0  0  0  0
    4.0689    4.0351   -2.6117 C   0  0  0  0  0  0  0  0  0  0  0  0
    3.1143    4.9542   -2.2240 C   0  0  0  0  0  0  0  0  0  0  0  0
    3.2621    6.6033   -2.7768 Cl  0  0  0  0  0  0  0  0  0  0  0  0
    2.0369    4.6350   -1.3790 C   0  0  0  0  0  0  0  0  0  0  0  0
    1.0340    5.7085   -0.9887 C   0  0  0  0  0  0  0  0  0  0  0  0
    0.8688    5.9915    0.3571 C   0  0  0  0  0  0  0  0  0  0  0  0
   -0.2851    6.7583    0.6442 C   0  0  0  0  0  0  0  0  0  0  0  0
   -0.9595    7.4597   -0.2487 C   0  0  0  0  0  0  0  0  0  0  0  0
   -1.9020    8.4503    0.1346 O   0  0  0  0  0  0  0  0  0  0  0  0
   -2.6061    9.1822   -0.8578 C   0  0  0  0  0  0  0  0  0  0  0  0
   -1.6153    9.9359   -1.7299 C   0  0  0  0  0  0  0  0  0  0  0  0
   -0.6761    8.9468   -2.4007 C   0  0  0  0  0  0  0  0  0  0  0  0
   -1.4550    8.0190   -3.2335 N   0  0  0  0  0  0  0  0  0  0  0  0
   -1.1917    6.5550   -2.8036 C   0  0  0  0  0  0  0  0  0  0  0  0
   -2.4505    5.8151   -3.3293 C   0  0  0  0  0  0  0  0  0  0  0  0
   -3.6046    6.8097   -3.0845 C   0  0  0  0  0  0  0  0  0  0  0  0
   -4.2517    6.5261   -1.9577 F   0  0  0  0  0  0  0  0  0  0  0  0
   -2.9712    8.2109   -3.0236 C   0  0  0  0  0  0  0  0  0  0  0  0
   -0.7016    7.1807   -1.5621 C   0  0  0  0  0  0  0  0  0  0  0  0
    0.3251    6.3395   -1.9174 C   0  0  0  0  0  0  0  0  0  0  0  0
    1.8885    3.3424   -0.9018 C   0  0  0  0  0  0  0  0  0  0  0  0
    2.8274    2.3639   -1.2746 C   0  0  0  0  0  0  0  0  0  0  0  0
    3.9870   -0.7435    0.9468 H   0  0  0  0  0  0  0  0  0  0  0  0
    4.6602   -0.3625   -1.4467 H   0  0  0  0  0  0  0  0  0  0  0  0
    5.5656    1.6013   -2.8446 H   0  0  0  0  0  0  0  0  0  0  0  0
    4.8833    4.2998   -3.2532 H   0  0  0  0  0  0  0  0  0  0  0  0
    1.5518    5.6603    1.1112 H   0  0  0  0  0  0  0  0  0  0  0  0
   -0.6357    6.7708    1.6551 H   0  0  0  0  0  0  0  0  0  0  0  0
   -3.1731    8.5069   -1.4639 H   0  0  0  0  0  0  0  0  0  0  0  0
   -3.2673    9.8785   -0.3855 H   0  0  0  0  0  0  0  0  0  0  0  0
   -2.1459   10.4874   -2.4777 H   0  0  0  0  0  0  0  0  0  0  0  0
   -1.0484   10.6113   -1.1237 H   0  0  0  0  0  0  0  0  0  0  0  0
    0.0214    9.4774   -3.0147 H   0  0  0  0  0  0  0  0  0  0  0  0
   -0.1455    8.3953   -1.6529 H   0  0  0  0  0  0  0  0  0  0  0  0
   -0.2745    6.1580   -3.1858 H   0  0  0  0  0  0  0  0  0  0  0  0
   -1.1120    6.4733   -1.7397 H   0  0  0  0  0  0  0  0  0  0  0  0
   -2.6080    4.8764   -2.8404 H   0  0  0  0  0  0  0  0  0  0  0  0
   -2.3537    5.5955   -4.3721 H   0  0  0  0  0  0  0  0  0  0  0  0
   -4.3121    6.7588   -3.8856 H   0  0  0  0  0  0  0  0  0  0  0  0
   -3.1739    8.6854   -2.0862 H   0  0  0  0  0  0  0  0  0  0  0  0
   -3.3750    8.8324   -3.7953 H   0  0  0  0  0  0  0  0  0  0  0  0
   -1.3079    7.6238   -2.3243 H   0  0  0  0  0  0  0  0  0  0  0  0
    0.5555    6.1916   -2.9517 H   0  0  0  0  0  0  0  0  0  0  0  0
    1.0709    3.0923   -0.2586 H   0  0  0  0  0  0  0  0  0  0  0  0
  1  2  2  0  0  0  0
  2  3  1  0  0  0  0
  2  4  1  0  0  0  0
  3 30  1  0  0  0  0
  4  5  2  0  0  0  0
  4 29  1  0  0  0  0
  5  6  1  0  0  0  0
  5 31  1  0  0  0  0
  6  7  1  0  0  0  0
  6 32  1  0  0  0  0
  7  8  1  0  0  0  0
  7 29  2  0  0  0  0
  8  9  2  0  0  0  0
  8 33  1  0  0  0  0
  9 10  1  0  0  0  0
  9 11  1  0  0  0  0
 11 12  1  0  0  0  0
 11 28  2  0  0  0  0
 12 13  1  0  0  0  0
 12 27  2  0  0  0  0
 13 14  2  0  0  0  0
 13 34  1  0  0  0  0
 14 15  1  0  0  0  0
 14 35  1  0  0  0  0
 15 16  1  0  0  0  0
 15 26  2  0  0  0  0
 16 17  1  0  0  0  0
 17 18  1  0  0  0  0
 17 36  1  0  0  0  0
 17 37  1  0  0  0  0
 18 19  1  0  0  0  0
 18 38  1  0  0  0  0
 18 39  1  0  0  0  0
 19 20  1  0  0  0  0
 19 40  1  0  0  0  0
 19 41  1  0  0  0  0
 20 21  1  0  0  0  0
 20 25  1  0  0  0  0
 21 22  1  0  0  0  0
 21 42  1  0  0  0  0
 21 43  1  0  0  0  0
 22 23  1  0  0  0  0
 22 44  1  0  0  0  0
 22 45  1  0  0  0  0
 23 24  1  0  0  0  0
 23 25  1  0  0  0  0
 23 46  1  0  0  0  0
 25 47  1  0  0  0  0
 25 48  1  0  0  0  0
 26 27  1  0  0  0  0
 26 49  1  0  0  0  0
 27 50  1  0  0  0  0
 28 29  1  0  0  0  0
 28 51  1  0  0  0  0
M  END
