
 OpenBabel03132512093D

 69 73  0  0  0  0  0  0  0  0999 V2000
    1.0146    0.0836   -0.0529 C   0  0  0  0  0  0  0  0  0  0  0  0
    0.5080    0.3289   -1.4648 C   0  0  0  0  0  0  0  0  0  0  0  0
    0.9980   -0.7351   -2.3529 N   0  0  0  0  0  0  0  0  0  0  0  0
    0.5080   -0.4979   -3.7184 C   0  0  0  0  0  0  0  0  0  0  0  0
    1.0146    0.8474   -4.2120 C   0  0  0  0  0  0  0  0  0  0  0  0
    2.4680   -0.7351   -2.3529 C   0  0  0  0  0  0  0  0  0  0  0  0
    2.9746    0.6103   -2.8465 C   0  0  0  0  0  0  0  0  0  0  0  0
    2.4846    1.6742   -1.9584 N   0  0  0  0  0  0  0  0  0  0  0  0
    3.4399    2.5320   -1.2424 C   0  0  0  0  0  0  0  0  0  0  0  0
    3.0163    3.4518   -0.4745 O   0  0  0  0  0  0  0  0  0  0  0  0
    4.9343    2.3188   -1.4204 C   0  0  0  0  0  0  0  0  0  0  0  0
    5.5884    2.1157   -2.6102 C   0  0  0  0  0  0  0  0  0  0  0  0
    5.0839    2.0785   -4.0114 C   0  0  0  0  0  0  0  0  0  0  0  0
    6.9107    1.9450   -2.3249 N   0  0  0  0  0  0  0  0  0  0  0  0
    7.1284    2.0561   -0.9727 C   0  0  0  0  0  0  0  0  0  0  0  0
    8.4693    1.9385   -0.2666 C   0  0  0  0  0  0  0  0  0  0  0  0
    9.4663    2.7878   -0.5705 C   0  0  0  0  0  0  0  0  0  0  0  0
    9.2629    3.8987   -1.5486 C   0  0  0  0  0  0  0  0  0  0  0  0
    8.2566    4.1525   -2.2129 O   0  0  0  0  0  0  0  0  0  0  0  0
   10.4106    4.6201   -1.5757 N   0  0  0  0  0  0  0  0  0  0  0  0
   11.3706    4.0798   -0.7130 C   0  0  0  0  0  0  0  0  0  0  0  0
   12.6436    4.5540   -0.5001 C   0  0  0  0  0  0  0  0  0  0  0  0
   13.4577    3.8362    0.3690 C   0  0  0  0  0  0  0  0  0  0  0  0
   12.9812    2.6735    0.9577 C   0  0  0  0  0  0  0  0  0  0  0  0
   13.9028    1.8678    1.8587 C   0  0  0  0  0  0  0  0  0  0  0  0
   14.4069    2.2449    3.0182 N   0  0  0  0  0  0  0  0  0  0  0  0
   15.0797    1.1565    3.5131 N   0  0  0  0  0  0  0  0  0  0  0  0
   15.0090    0.0967    2.6682 C   0  0  0  0  0  0  0  0  0  0  0  0
   15.5517   -1.1959    2.7554 C   0  0  0  0  0  0  0  0  0  0  0  0
   15.2940   -2.0518    1.7151 C   0  0  0  0  0  0  0  0  0  0  0  0
   14.5168   -1.6217    0.6201 C   0  0  0  0  0  0  0  0  0  0  0  0
   13.9754   -0.3604    0.5098 C   0  0  0  0  0  0  0  0  0  0  0  0
   14.2381    0.5169    1.5649 C   0  0  0  0  0  0  0  0  0  0  0  0
   11.6831    2.2273    0.7444 C   0  0  0  0  0  0  0  0  0  0  0  0
   10.8407    2.9478   -0.0924 C   0  0  0  0  0  0  0  0  0  0  0  0
    5.9151    2.2926   -0.3750 C   0  0  0  0  0  0  0  0  0  0  0  0
    5.6433    2.4497    1.0998 C   0  0  0  0  0  0  0  0  0  0  0  0
    0.6580   -0.8635    0.2946 H   0  0  0  0  0  0  0  0  0  0  0  0
    0.6580    0.8581    0.5936 H   0  0  0  0  0  0  0  0  0  0  0  0
    2.0846    0.0836   -0.0529 H   0  0  0  0  0  0  0  0  0  0  0  0
   -0.5620    0.3289   -1.4648 H   0  0  0  0  0  0  0  0  0  0  0  0
    0.8646    1.2759   -1.8122 H   0  0  0  0  0  0  0  0  0  0  0  0
    0.8646   -1.2724   -4.3649 H   0  0  0  0  0  0  0  0  0  0  0  0
   -0.5620   -0.4979   -3.7184 H   0  0  0  0  0  0  0  0  0  0  0  0
    2.0846    0.8474   -4.2120 H   0  0  0  0  0  0  0  0  0  0  0  0
    0.6580    1.0201   -5.2059 H   0  0  0  0  0  0  0  0  0  0  0  0
    0.6580    1.6219   -3.5655 H   0  0  0  0  0  0  0  0  0  0  0  0
    2.8246   -0.9077   -1.3590 H   0  0  0  0  0  0  0  0  0  0  0  0
    2.8246   -1.5096   -2.9994 H   0  0  0  0  0  0  0  0  0  0  0  0
    4.0446    0.6103   -2.8465 H   0  0  0  0  0  0  0  0  0  0  0  0
    2.6180    0.7829   -3.8404 H   0  0  0  0  0  0  0  0  0  0  0  0
    1.4818    1.8173   -1.8389 H   0  0  0  0  0  0  0  0  0  0  0  0
    4.3589    1.2976   -4.1088 H   0  0  0  0  0  0  0  0  0  0  0  0
    4.6312    3.0176   -4.2525 H   0  0  0  0  0  0  0  0  0  0  0  0
    5.8991    1.8936   -4.6793 H   0  0  0  0  0  0  0  0  0  0  0  0
    7.6363    1.7608   -3.0178 H   0  0  0  0  0  0  0  0  0  0  0  0
    8.6198    1.1795    0.4725 H   0  0  0  0  0  0  0  0  0  0  0  0
   10.5555    5.4499   -2.1510 H   0  0  0  0  0  0  0  0  0  0  0  0
   12.9943    5.4413   -0.9845 H   0  0  0  0  0  0  0  0  0  0  0  0
   14.4483    4.1793    0.5832 H   0  0  0  0  0  0  0  0  0  0  0  0
   15.5725    1.1452    4.4060 H   0  0  0  0  0  0  0  0  0  0  0  0
   16.1399   -1.4995    3.5961 H   0  0  0  0  0  0  0  0  0  0  0  0
   15.6838   -3.0481    1.7346 H   0  0  0  0  0  0  0  0  0  0  0  0
   14.3368   -2.3173   -0.1728 H   0  0  0  0  0  0  0  0  0  0  0  0
   13.3874   -0.0689   -0.3353 H   0  0  0  0  0  0  0  0  0  0  0  0
   11.3348    1.3350    1.2212 H   0  0  0  0  0  0  0  0  0  0  0  0
    5.1876    3.4011    1.2791 H   0  0  0  0  0  0  0  0  0  0  0  0
    4.9850    1.6718    1.4260 H   0  0  0  0  0  0  0  0  0  0  0  0
    6.5643    2.3877    1.6408 H   0  0  0  0  0  0  0  0  0  0  0  0
  1  2  1  0  0  0  0
  1 38  1  0  0  0  0
  1 39  1  0  0  0  0
  1 40  1  0  0  0  0
  2  3  1  0  0  0  0
  2 41  1  0  0  0  0
  2 42  1  0  0  0  0
  3  4  1  0  0  0  0
  3  6  1  0  0  0  0
  4  5  1  0  0  0  0
  4 43  1  0  0  0  0
  4 44  1  0  0  0  0
  5 45  1  0  0  0  0
  5 46  1  0  0  0  0
  5 47  1  0  0  0  0
  6  7  1  0  0  0  0
  6 48  1  0  0  0  0
  6 49  1  0  0  0  0
  7  8  1  0  0  0  0
  7 50  1  0  0  0  0
  7 51  1  0  0  0  0
  8  9  1  0  0  0  0
  8 52  1  0  0  0  0
  9 10  2  0  0  0  0
  9 11  1  0  0  0  0
 11 12  2  0  0  0  0
 11 36  1  0  0  0  0
 12 13  1  0  0  0  0
 12 14  1  0  0  0  0
 13 53  1  0  0  0  0
 13 54  1  0  0  0  0
 13 55  1  0  0  0  0
 14 15  1  0  0  0  0
 14 56  1  0  0  0  0
 15 16  1  0  0  0  0
 15 36  2  0  0  0  0
 16 17  2  0  0  0  0
 16 57  1  0  0  0  0
 17 18  1  0  0  0  0
 17 35  1  0  0  0  0
 18 19  2  0  0  0  0
 18 20  1  0  0  0  0
 20 21  1  0  0  0  0
 20 58  1  0  0  0  0
 21 22  1  0  0  0  0
 21 35  2  0  0  0  0
 22 23  2  0  0  0  0
 22 59  1  0  0  0  0
 23 24  1  0  0  0  0
 23 60  1  0  0  0  0
 24 25  1  0  0  0  0
 24 34  2  0  0  0  0
 25 26  2  0  0  0  0
 25 33  1  0  0  0  0
 26 27  1  0  0  0  0
 27 28  1  0  0  0  0
 27 61  1  0  0  0  0
 28 29  1  0  0  0  0
 28 33  2  0  0  0  0
 29 30  2  0  0  0  0
 29 62  1  0  0  0  0
 30 31  1  0  0  0  0
 30 63  1  0  0  0  0
 31 32  2  0  0  0  0
 31 64  1  0  0  0  0
 32 33  1  0  0  0  0
 32 65  1  0  0  0  0
 34 35  1  0  0  0  0
 34 66  1  0  0  0  0
 36 37  1  0  0  0  0
 37 67  1  0  0  0  0
 37 68  1  0  0  0  0
 37 69  1  0  0  0  0
M  END
