
 OpenBabel03132514253D

 56 58  0  0  0  0  0  0  0  0999 V2000
    0.9314   -0.0671   -0.0283 C   0  0  0  0  0  0  0  0  0  0  0  0
    0.4581    0.1827   -1.3435 O   0  0  0  0  0  0  0  0  0  0  0  0
    0.8012    1.3921   -2.0038 C   0  0  0  0  0  0  0  0  0  0  0  0
   -0.1791    1.9602   -2.7690 C   0  0  0  0  0  0  0  0  0  0  0  0
    0.1022    3.1029   -3.5508 C   0  0  0  0  0  0  0  0  0  0  0  0
   -0.8951    3.6846   -4.2913 N   0  0  0  0  0  0  0  0  0  0  0  0
   -0.5637    4.7344   -4.9913 C   0  0  0  0  0  0  0  0  0  0  0  0
    0.6763    5.3073   -5.0768 N   0  0  0  0  0  0  0  0  0  0  0  0
    1.6426    4.7532   -4.3852 C   0  0  0  0  0  0  0  0  0  0  0  0
    2.9961    5.3208   -4.4678 N   0  0  0  0  0  0  0  0  0  0  0  0
    3.2508    6.4933   -5.3171 C   0  0  0  0  0  0  0  0  0  0  0  0
    4.2712    6.4243   -6.2431 C   0  0  0  0  0  0  0  0  0  0  0  0
    4.6539    7.5412   -6.9747 C   0  0  0  0  0  0  0  0  0  0  0  0
    3.9894    8.7481   -6.7629 C   0  0  0  0  0  0  0  0  0  0  0  0
    2.9667    8.8152   -5.8356 C   0  0  0  0  0  0  0  0  0  0  0  0
    2.1072   10.2976   -5.5951 Cl  0  0  0  0  0  0  0  0  0  0  0  0
    2.6134    7.6917   -5.1231 C   0  0  0  0  0  0  0  0  0  0  0  0
    1.5998    7.7628   -4.2363 F   0  0  0  0  0  0  0  0  0  0  0  0
    1.4184    3.6172   -3.5563 C   0  0  0  0  0  0  0  0  0  0  0  0
    2.4183    3.0035   -2.7681 C   0  0  0  0  0  0  0  0  0  0  0  0
    2.1082    1.9159   -2.0025 C   0  0  0  0  0  0  0  0  0  0  0  0
    3.1809    1.2666   -1.1435 C   0  0  0  0  0  0  0  0  0  0  0  0
    4.2793    0.7991   -2.0014 N   0  0  0  0  0  0  0  0  0  0  0  0
    5.3168    0.1711   -1.1705 C   0  0  0  0  0  0  0  0  0  0  0  0
    3.7635   -0.1826   -2.9663 C   0  0  0  0  0  0  0  0  0  0  0  0
    3.1673   -1.3636   -2.2179 C   0  0  0  0  0  0  0  0  0  0  0  0
    2.6908    0.4667   -3.8254 C   0  0  0  0  0  0  0  0  0  0  0  0
    2.8399    0.5331   -5.0857 O   0  0  0  0  0  0  0  0  0  0  0  0
    1.4808    1.0178   -3.1984 N   0  0  0  0  0  0  0  0  0  0  0  0
    1.3083    0.9410   -1.7405 C   0  0  0  0  0  0  0  0  0  0  0  0
    0.4434    1.6458   -4.0292 C   0  0  0  0  0  0  0  0  0  0  0  0
    0.5748   -1.0195    0.3043 H   0  0  0  0  0  0  0  0  0  0  0  0
    0.5748    0.6971    0.6303 H   0  0  0  0  0  0  0  0  0  0  0  0
    2.0014   -0.0671   -0.0283 H   0  0  0  0  0  0  0  0  0  0  0  0
   -1.1623    1.5381   -2.7757 H   0  0  0  0  0  0  0  0  0  0  0  0
   -1.3442    5.1967   -5.5588 H   0  0  0  0  0  0  0  0  0  0  0  0
    3.7585    4.9011   -3.9358 H   0  0  0  0  0  0  0  0  0  0  0  0
    4.7765    5.4943   -6.4004 H   0  0  0  0  0  0  0  0  0  0  0  0
    5.4469    7.4762   -7.6901 H   0  0  0  0  0  0  0  0  0  0  0  0
    4.2701    9.6196   -7.3165 H   0  0  0  0  0  0  0  0  0  0  0  0
    3.4160    3.3902   -2.7712 H   0  0  0  0  0  0  0  0  0  0  0  0
    3.5564    1.9812   -0.4411 H   0  0  0  0  0  0  0  0  0  0  0  0
    2.7612    0.4352   -0.6166 H   0  0  0  0  0  0  0  0  0  0  0  0
    4.8970   -0.6602   -0.6437 H   0  0  0  0  0  0  0  0  0  0  0  0
    6.1162   -0.1692   -1.7950 H   0  0  0  0  0  0  0  0  0  0  0  0
    5.6922    0.8857   -0.4682 H   0  0  0  0  0  0  0  0  0  0  0  0
    4.5630   -0.5229   -3.5908 H   0  0  0  0  0  0  0  0  0  0  0  0
    2.3678   -1.0234   -1.5935 H   0  0  0  0  0  0  0  0  0  0  0  0
    2.7919   -2.0782   -2.9203 H   0  0  0  0  0  0  0  0  0  0  0  0
    3.9224   -1.8207   -1.6132 H   0  0  0  0  0  0  0  0  0  0  0  0
    1.2188    1.9289   -1.3394 H   0  0  0  0  0  0  0  0  0  0  0  0
    0.4237    0.3829   -1.5150 H   0  0  0  0  0  0  0  0  0  0  0  0
    2.1569    0.4552   -1.3061 H   0  0  0  0  0  0  0  0  0  0  0  0
    0.8631    2.4772   -4.5560 H   0  0  0  0  0  0  0  0  0  0  0  0
    0.0679    0.9312   -4.7316 H   0  0  0  0  0  0  0  0  0  0  0  0
   -0.3561    1.9861   -3.4047 H   0  0  0  0  0  0  0  0  0  0  0  0
  1  2  1  0  0  0  0
  1 32  1  0  0  0  0
  1 33  1  0  0  0  0
  1 34  1  0  0  0  0
  2  3  1  0  0  0  0
  3  4  1  0  0  0  0
  3 21  2  0  0  0  0
  4  5  2  0  0  0  0
  4 35  1  0  0  0  0
  5  6  1  0  0  0  0
  5 19  1  0  0  0  0
  6  7  2  0  0  0  0
  7  8  1  0  0  0  0
  7 36  1  0  0  0  0
  8  9  2  0  0  0  0
  9 10  1  0  0  0  0
  9 19  1  0  0  0  0
 10 11  1  0  0  0  0
 10 37  1  0  0  0  0
 11 12  1  0  0  0  0
 11 17  2  0  0  0  0
 12 13  2  0  0  0  0
 12 38  1  0  0  0  0
 13 14  1  0  0  0  0
 13 39  1  0  0  0  0
 14 15  2  0  0  0  0
 14 40  1  0  0  0  0
 15 16  1  0  0  0  0
 15 17  1  0  0  0  0
 17 18  1  0  0  0  0
 19 20  2  0  0  0  0
 20 21  1  0  0  0  0
 20 41  1  0  0  0  0
 21 22  1  0  0  0  0
 22 23  1  0  0  0  0
 22 42  1  0  0  0  0
 22 43  1  0  0  0  0
 23 24  1  0  0  0  0
 23 25  1  0  0  0  0
 24 44  1  0  0  0  0
 24 45  1  0  0  0  0
 24 46  1  0  0  0  0
 25 26  1  0  0  0  0
 25 27  1  0  0  0  0
 25 47  1  0  0  0  0
 26 48  1  0  0  0  0
 26 49  1  0  0  0  0
 26 50  1  0  0  0  0
 27 28  2  0  0  0  0
 27 29  1  0  0  0  0
 29 30  1  0  0  0  0
 29 31  1  0  0  0  0
 30 51  1  0  0  0  0
 30 52  1  0  0  0  0
 30 53  1  0  0  0  0
 31 54  1  0  0  0  0
 31 55  1  0  0  0  0
 31 56  1  0  0  0  0
M  END
