
 OpenBabel03132512093D

 34 37  0  0  0  0  0  0  0  0999 V2000
    2.1370   -0.0110   -0.0020 F   0  0  0  0  0  0  0  0  0  0  0  0
    0.7800   -0.0010    0.0050 C   0  0  0  0  0  0  0  0  0  0  0  0
    0.1270   -1.1860    0.0050 C   0  0  0  0  0  0  0  0  0  0  0  0
   -1.2590   -1.1770   -0.0060 C   0  0  0  0  0  0  0  0  0  0  0  0
   -1.9460    0.0020   -0.0010 C   0  0  0  0  0  0  0  0  0  0  0  0
   -3.4660    0.0108   -0.0020 C   0  0  0  0  0  0  0  0  0  0  0  0
   -4.2249   -0.5335    0.9378 N   0  0  0  0  0  0  0  0  0  0  0  0
   -5.5036   -0.3385    0.6188 N   0  0  0  0  0  0  0  0  0  0  0  0
   -6.7406   -0.6742    1.2079 C   0  0  0  0  0  0  0  0  0  0  0  0
   -7.8873   -0.3077    0.5953 C   0  0  0  0  0  0  0  0  0  0  0  0
   -7.8794    0.3724   -0.5814 C   0  0  0  0  0  0  0  0  0  0  0  0
   -6.7250    0.7255   -1.1895 C   0  0  0  0  0  0  0  0  0  0  0  0
   -5.5028    0.3791   -0.6101 C   0  0  0  0  0  0  0  0  0  0  0  0
   -4.2132    0.5607   -0.9374 C   0  0  0  0  0  0  0  0  0  0  0  0
   -3.7025    1.2785   -2.1761 C   0  0  0  0  0  0  0  0  0  0  0  0
   -4.0422    2.6438   -2.3879 C   0  0  0  0  0  0  0  0  0  0  0  0
   -3.9856    3.1743   -3.6871 C   0  0  0  0  0  0  0  0  0  0  0  0
   -3.3753    2.5200   -4.6311 N   0  0  0  0  0  0  0  0  0  0  0  0
   -2.7643    1.2904   -4.3516 C   0  0  0  0  0  0  0  0  0  0  0  0
   -3.0719    0.6142   -3.1460 C   0  0  0  0  0  0  0  0  0  0  0  0
   -1.2340    1.1920    0.0050 C   0  0  0  0  0  0  0  0  0  0  0  0
    0.1520    1.1880   -0.0060 C   0  0  0  0  0  0  0  0  0  0  0  0
    0.6682   -2.1090    0.0133 H   0  0  0  0  0  0  0  0  0  0  0  0
   -1.7951   -2.1029   -0.0185 H   0  0  0  0  0  0  0  0  0  0  0  0
   -6.7703   -1.2141    2.1312 H   0  0  0  0  0  0  0  0  0  0  0  0
   -8.8241   -0.5588    1.0471 H   0  0  0  0  0  0  0  0  0  0  0  0
   -8.8108    0.6350   -1.0380 H   0  0  0  0  0  0  0  0  0  0  0  0
   -6.7477    1.2684   -2.1112 H   0  0  0  0  0  0  0  0  0  0  0  0
   -4.3381    3.2606   -1.5651 H   0  0  0  0  0  0  0  0  0  0  0  0
   -4.4447    4.1170   -3.9003 H   0  0  0  0  0  0  0  0  0  0  0  0
   -2.0694    0.8649   -5.0451 H   0  0  0  0  0  0  0  0  0  0  0  0
   -2.8028   -0.4131   -3.0151 H   0  0  0  0  0  0  0  0  0  0  0  0
   -1.7604    2.1235    0.0183 H   0  0  0  0  0  0  0  0  0  0  0  0
    0.7056    2.1035   -0.0227 H   0  0  0  0  0  0  0  0  0  0  0  0
  1  2  1  0  0  0  0
  2  3  1  0  0  0  0
  2 22  2  0  0  0  0
  3  4  2  0  0  0  0
  3 23  1  0  0  0  0
  4  5  1  0  0  0  0
  4 24  1  0  0  0  0
  5  6  1  0  0  0  0
  5 21  2  0  0  0  0
  6  7  2  0  0  0  0
  6 14  1  0  0  0  0
  7  8  1  0  0  0  0
  8  9  1  0  0  0  0
  8 13  1  0  0  0  0
  9 10  2  0  0  0  0
  9 25  1  0  0  0  0
 10 11  1  0  0  0  0
 10 26  1  0  0  0  0
 11 12  2  0  0  0  0
 11 27  1  0  0  0  0
 12 13  1  0  0  0  0
 12 28  1  0  0  0  0
 13 14  2  0  0  0  0
 14 15  1  0  0  0  0
 15 16  1  0  0  0  0
 15 20  2  0  0  0  0
 16 17  2  0  0  0  0
 16 29  1  0  0  0  0
 17 18  1  0  0  0  0
 17 30  1  0  0  0  0
 18 19  2  0  0  0  0
 19 20  1  0  0  0  0
 19 31  1  0  0  0  0
 20 32  1  0  0  0  0
 21 22  1  0  0  0  0
 21 33  1  0  0  0  0
 22 34  1  0  0  0  0
M  END
