
 OpenBabel03132514253D

 27 29  0  0  0  0  0  0  0  0999 V2000
   -2.0820    0.0010    0.0050 Cl  0  0  0  0  0  0  0  0  0  0  0  0
   -0.3450   -0.0070    0.0030 C   0  0  0  0  0  0  0  0  0  0  0  0
    0.3290   -1.2190   -0.0190 C   0  0  0  0  0  0  0  0  0  0  0  0
    1.7230   -1.1990    0.0020 C   0  0  0  0  0  0  0  0  0  0  0  0
    2.4070    0.0060    0.0170 C   0  0  0  0  0  0  0  0  0  0  0  0
    3.8765    0.0114    0.0532 N   0  0  0  0  0  0  0  0  0  0  0  0
    4.5928    0.5411    0.9807 N   0  0  0  0  0  0  0  0  0  0  0  0
    5.8579    0.3645    0.7133 N   0  0  0  0  0  0  0  0  0  0  0  0
    5.9330   -0.3084   -0.4606 C   0  0  0  0  0  0  0  0  0  0  0  0
    4.6527   -0.5207   -0.8510 C   0  0  0  0  0  0  0  0  0  0  0  0
    4.2037   -1.2449   -2.1096 C   0  0  0  0  0  0  0  0  0  0  0  0
    4.5298   -2.5768   -2.3771 C   0  0  0  0  0  0  0  0  0  0  0  0
    3.9364   -3.2201   -3.4453 C   0  0  0  0  0  0  0  0  0  0  0  0
    3.0640   -2.6092   -4.2622 N   0  0  0  0  0  0  0  0  0  0  0  0
    2.7720   -1.3286   -4.0142 C   0  0  0  0  0  0  0  0  0  0  0  0
    3.2978   -0.6207   -2.9578 C   0  0  0  0  0  0  0  0  0  0  0  0
    1.7120    1.2100   -0.0020 C   0  0  0  0  0  0  0  0  0  0  0  0
    0.3210    1.2070   -0.0140 C   0  0  0  0  0  0  0  0  0  0  0  0
   -0.2066   -2.1448   -0.0512 H   0  0  0  0  0  0  0  0  0  0  0  0
    2.2680   -2.1198    0.0066 H   0  0  0  0  0  0  0  0  0  0  0  0
    6.8217   -0.6105   -0.9744 H   0  0  0  0  0  0  0  0  0  0  0  0
    5.2336   -3.0943   -1.7592 H   0  0  0  0  0  0  0  0  0  0  0  0
    4.1816   -4.2453   -3.6290 H   0  0  0  0  0  0  0  0  0  0  0  0
    2.0933   -0.8273   -4.6721 H   0  0  0  0  0  0  0  0  0  0  0  0
    3.0125    0.3972   -2.7918 H   0  0  0  0  0  0  0  0  0  0  0  0
    2.2461    2.1372   -0.0074 H   0  0  0  0  0  0  0  0  0  0  0  0
   -0.2250    2.1270   -0.0360 H   0  0  0  0  0  0  0  0  0  0  0  0
  1  2  1  0  0  0  0
  2  3  1  0  0  0  0
  2 18  2  0  0  0  0
  3  4  2  0  0  0  0
  3 19  1  0  0  0  0
  4  5  1  0  0  0  0
  4 20  1  0  0  0  0
  5  6  1  0  0  0  0
  5 17  2  0  0  0  0
  6  7  1  0  0  0  0
  6 10  1  0  0  0  0
  7  8  2  0  0  0  0
  8  9  1  0  0  0  0
  9 10  2  0  0  0  0
  9 21  1  0  0  0  0
 10 11  1  0  0  0  0
 11 12  1  0  0  0  0
 11 16  2  0  0  0  0
 12 13  2  0  0  0  0
 12 22  1  0  0  0  0
 13 14  1  0  0  0  0
 13 23  1  0  0  0  0
 14 15  2  0  0  0  0
 15 16  1  0  0  0  0
 15 24  1  0  0  0  0
 16 25  1  0  0  0  0
 17 18  1  0  0  0  0
 17 26  1  0  0  0  0
 18 27  1  0  0  0  0
M  END
