
 OpenBabel03132512093D

 40 43  0  0  0  0  0  0  0  0999 V2000
    0.9878    0.0591   -0.0797 C   0  0  0  0  0  0  0  0  0  0  0  0
    0.4811    1.4540    0.2491 C   0  0  0  0  0  0  0  0  0  0  0  0
    0.9878    2.4361   -0.7945 C   0  0  0  0  0  0  0  0  0  0  0  0
   -1.0389    1.4540    0.2491 C   0  0  0  0  0  0  0  0  0  0  0  0
   -1.8047    2.5329    0.2478 N   0  0  0  0  0  0  0  0  0  0  0  0
   -3.1177    2.1528    0.2432 N   0  0  0  0  0  0  0  0  0  0  0  0
   -3.1315    0.8233    0.2394 C   0  0  0  0  0  0  0  0  0  0  0  0
   -4.2217   -0.0829    0.2128 C   0  0  0  0  0  0  0  0  0  0  0  0
   -3.9582   -1.4174    0.2089 C   0  0  0  0  0  0  0  0  0  0  0  0
   -2.6136   -1.8955    0.2425 C   0  0  0  0  0  0  0  0  0  0  0  0
   -2.3495   -3.3923    0.2538 C   0  0  0  0  0  0  0  0  0  0  0  0
   -1.6692   -4.1283    1.2492 C   0  0  0  0  0  0  0  0  0  0  0  0
   -1.6262   -5.4134    0.9393 N   0  0  0  0  0  0  0  0  0  0  0  0
   -2.2723   -5.5034   -0.2615 N   0  0  0  0  0  0  0  0  0  0  0  0
   -2.7160   -4.2880   -0.6839 C   0  0  0  0  0  0  0  0  0  0  0  0
   -3.4780   -3.9970   -1.9664 C   0  0  0  0  0  0  0  0  0  0  0  0
   -2.9542   -3.1276   -2.9132 C   0  0  0  0  0  0  0  0  0  0  0  0
   -3.6804   -2.9176   -4.0913 C   0  0  0  0  0  0  0  0  0  0  0  0
   -3.1688   -2.0820   -5.0202 F   0  0  0  0  0  0  0  0  0  0  0  0
   -4.8833   -3.5493   -4.3347 C   0  0  0  0  0  0  0  0  0  0  0  0
   -5.4118   -4.4238   -3.3936 C   0  0  0  0  0  0  0  0  0  0  0  0
   -4.6925   -4.6204   -2.2376 C   0  0  0  0  0  0  0  0  0  0  0  0
   -5.1730   -5.4684   -1.2959 F   0  0  0  0  0  0  0  0  0  0  0  0
   -1.5659   -1.0289    0.2646 C   0  0  0  0  0  0  0  0  0  0  0  0
   -1.8372    0.3293    0.2504 N   0  0  0  0  0  0  0  0  0  0  0  0
    0.6311   -0.2314   -1.0458 H   0  0  0  0  0  0  0  0  0  0  0  0
    0.6311   -0.6323    0.6549 H   0  0  0  0  0  0  0  0  0  0  0  0
    2.0578    0.0591   -0.0797 H   0  0  0  0  0  0  0  0  0  0  0  0
    0.8378    1.7445    1.2151 H   0  0  0  0  0  0  0  0  0  0  0  0
    0.6311    2.1456   -1.7606 H   0  0  0  0  0  0  0  0  0  0  0  0
    0.6311    3.4180   -0.5631 H   0  0  0  0  0  0  0  0  0  0  0  0
    2.0578    2.4361   -0.7945 H   0  0  0  0  0  0  0  0  0  0  0  0
   -5.2299    0.2752    0.1960 H   0  0  0  0  0  0  0  0  0  0  0  0
   -4.7677   -2.1165    0.1803 H   0  0  0  0  0  0  0  0  0  0  0  0
   -1.2456   -3.7032    2.1350 H   0  0  0  0  0  0  0  0  0  0  0  0
   -2.4056   -6.3733   -0.7771 H   0  0  0  0  0  0  0  0  0  0  0  0
   -2.0209   -2.6315   -2.7470 H   0  0  0  0  0  0  0  0  0  0  0  0
   -5.4087   -3.3655   -5.2484 H   0  0  0  0  0  0  0  0  0  0  0  0
   -6.3422   -4.9249   -3.5614 H   0  0  0  0  0  0  0  0  0  0  0  0
   -0.5579   -1.3871    0.2922 H   0  0  0  0  0  0  0  0  0  0  0  0
  1  2  1  0  0  0  0
  1 26  1  0  0  0  0
  1 27  1  0  0  0  0
  1 28  1  0  0  0  0
  2  3  1  0  0  0  0
  2  4  1  0  0  0  0
  2 29  1  0  0  0  0
  3 30  1  0  0  0  0
  3 31  1  0  0  0  0
  3 32  1  0  0  0  0
  4  5  2  0  0  0  0
  4 25  1  0  0  0  0
  5  6  1  0  0  0  0
  6  7  2  0  0  0  0
  7  8  1  0  0  0  0
  7 25  1  0  0  0  0
  8  9  2  0  0  0  0
  8 33  1  0  0  0  0
  9 10  1  0  0  0  0
  9 34  1  0  0  0  0
 10 11  1  0  0  0  0
 10 24  2  0  0  0  0
 11 12  1  0  0  0  0
 11 15  2  0  0  0  0
 12 13  2  0  0  0  0
 12 35  1  0  0  0  0
 13 14  1  0  0  0  0
 14 15  1  0  0  0  0
 14 36  1  0  0  0  0
 15 16  1  0  0  0  0
 16 17  1  0  0  0  0
 16 22  2  0  0  0  0
 17 18  2  0  0  0  0
 17 37  1  0  0  0  0
 18 19  1  0  0  0  0
 18 20  1  0  0  0  0
 20 21  2  0  0  0  0
 20 38  1  0  0  0  0
 21 22  1  0  0  0  0
 21 39  1  0  0  0  0
 22 23  1  0  0  0  0
 24 25  1  0  0  0  0
 24 40  1  0  0  0  0
M  END
