
 OpenBabel03132512083D

 68 74  0  0  0  0  0  0  0  0999 V2000
    1.0740   -0.0653   -0.0164 C   0  0  0  0  0  0  0  0  0  0  0  0
    0.4706    0.0917    1.6829 S   0  0  0  0  0  0  0  0  0  0  0  0
    0.9808    1.4023    2.2864 O   0  0  0  0  0  0  0  0  0  0  0  0
   -1.1046    0.0917    1.6829 N   0  0  0  0  0  0  0  0  0  0  0  0
   -1.8396    1.1310    0.9476 C   0  0  0  0  0  0  0  0  0  0  0  0
   -2.8439    1.7587    1.6658 C   0  0  0  0  0  0  0  0  0  0  0  0
   -3.6653    2.6045    0.8835 C   0  0  0  0  0  0  0  0  0  0  0  0
   -3.3420    3.0671   -0.3104 C   0  0  0  0  0  0  0  0  0  0  0  0
   -4.0911    4.2244   -0.9507 C   0  0  0  0  0  0  0  0  0  0  0  0
   -4.0111    5.4309   -0.2752 C   0  0  0  0  0  0  0  0  0  0  0  0
   -4.8937    6.4221   -0.7656 C   0  0  0  0  0  0  0  0  0  0  0  0
   -5.4798    6.3842   -1.9484 C   0  0  0  0  0  0  0  0  0  0  0  0
   -6.1348    7.6132   -2.5575 C   0  0  0  0  0  0  0  0  0  0  0  0
   -5.4742    8.8102   -2.7506 N   0  0  0  0  0  0  0  0  0  0  0  0
   -6.1809    9.9218   -3.2192 C   0  0  0  0  0  0  0  0  0  0  0  0
   -5.8087   11.3019   -3.5264 N   0  0  0  0  0  0  0  0  0  0  0  0
   -6.8764   11.9220   -3.9364 C   0  0  0  0  0  0  0  0  0  0  0  0
   -6.9231   13.2853   -4.3311 O   0  0  0  0  0  0  0  0  0  0  0  0
   -5.7441   14.0759   -4.2945 C   0  0  0  0  0  0  0  0  0  0  0  0
   -4.7330   13.6422   -5.0643 C   0  0  0  0  0  0  0  0  0  0  0  0
   -3.8004   12.8699   -4.2578 O   0  0  0  0  0  0  0  0  0  0  0  0
   -3.9947   13.3325   -2.8012 C   0  0  0  0  0  0  0  0  0  0  0  0
   -2.8286   14.2106   -2.3973 C   0  0  0  0  0  0  0  0  0  0  0  0
   -1.6142   13.7278   -2.9526 O   0  0  0  0  0  0  0  0  0  0  0  0
   -3.1028   15.4666   -2.8457 C   0  0  0  0  0  0  0  0  0  0  0  0
   -4.5397   15.6949   -2.8345 O   0  0  0  0  0  0  0  0  0  0  0  0
   -5.2029   14.3061   -2.8979 C   0  0  0  0  0  0  0  0  0  0  0  0
   -7.9710   11.0523   -3.9322 N   0  0  0  0  0  0  0  0  0  0  0  0
   -7.5561    9.8124   -3.4908 C   0  0  0  0  0  0  0  0  0  0  0  0
   -8.2042    8.5989   -3.2913 C   0  0  0  0  0  0  0  0  0  0  0  0
   -7.4982    7.5089   -2.8342 C   0  0  0  0  0  0  0  0  0  0  0  0
   -8.3314    5.9543   -2.5945 Cl  0  0  0  0  0  0  0  0  0  0  0  0
   -5.4657    5.1799   -2.5958 C   0  0  0  0  0  0  0  0  0  0  0  0
   -4.7322    4.1248   -2.1093 C   0  0  0  0  0  0  0  0  0  0  0  0
   -2.2971    2.4492   -0.9395 C   0  0  0  0  0  0  0  0  0  0  0  0
   -1.5289    1.5174   -0.2842 C   0  0  0  0  0  0  0  0  0  0  0  0
    1.0573   -1.2630    2.6412 N   0  0  0  0  0  0  0  0  0  0  0  0
    0.0530   -1.8648    3.6392 C   0  0  0  0  0  0  0  0  0  0  0  0
    0.6308   -3.2407    3.2703 C   0  0  0  0  0  0  0  0  0  0  0  0
    1.0385   -2.6243    1.9219 C   0  0  0  0  0  0  0  0  0  0  0  0
    0.7173    0.7583   -0.5990 H   0  0  0  0  0  0  0  0  0  0  0  0
    0.7173   -0.9816   -0.4383 H   0  0  0  0  0  0  0  0  0  0  0  0
    2.1440   -0.0653   -0.0164 H   0  0  0  0  0  0  0  0  0  0  0  0
   -2.9857    1.6170    2.7169 H   0  0  0  0  0  0  0  0  0  0  0  0
   -4.6145    2.8889    1.2873 H   0  0  0  0  0  0  0  0  0  0  0  0
   -3.3425    5.5983    0.5432 H   0  0  0  0  0  0  0  0  0  0  0  0
   -5.1008    7.2608   -0.1342 H   0  0  0  0  0  0  0  0  0  0  0  0
   -6.0990   14.9987   -4.7035 H   0  0  0  0  0  0  0  0  0  0  0  0
   -5.1222   13.0240   -5.8461 H   0  0  0  0  0  0  0  0  0  0  0  0
   -4.2245   14.4818   -5.4901 H   0  0  0  0  0  0  0  0  0  0  0  0
   -4.1027   12.5086   -2.1270 H   0  0  0  0  0  0  0  0  0  0  0  0
   -2.7235   14.2153   -1.3325 H   0  0  0  0  0  0  0  0  0  0  0  0
   -1.6861   13.7134   -3.9499 H   0  0  0  0  0  0  0  0  0  0  0  0
   -2.7379   15.5704   -3.8462 H   0  0  0  0  0  0  0  0  0  0  0  0
   -2.6250   16.1823   -2.2098 H   0  0  0  0  0  0  0  0  0  0  0  0
   -5.9699   14.1947   -2.1601 H   0  0  0  0  0  0  0  0  0  0  0  0
   -8.9220   11.2949   -4.2102 H   0  0  0  0  0  0  0  0  0  0  0  0
   -9.2515    8.5120   -3.4929 H   0  0  0  0  0  0  0  0  0  0  0  0
   -6.0339    5.0574   -3.4941 H   0  0  0  0  0  0  0  0  0  0  0  0
   -4.6772    3.2146   -2.6691 H   0  0  0  0  0  0  0  0  0  0  0  0
   -2.0744    2.6948   -1.9569 H   0  0  0  0  0  0  0  0  0  0  0  0
   -0.6726    1.0993   -0.7709 H   0  0  0  0  0  0  0  0  0  0  0  0
   -0.0076   -1.5295    4.6535 H   0  0  0  0  0  0  0  0  0  0  0  0
   -0.9754   -1.7264    3.3781 H   0  0  0  0  0  0  0  0  0  0  0  0
    0.0448   -4.1340    3.3293 H   0  0  0  0  0  0  0  0  0  0  0  0
    1.4487   -3.5608    3.8814 H   0  0  0  0  0  0  0  0  0  0  0  0
    0.4704   -2.7862    1.0298 H   0  0  0  0  0  0  0  0  0  0  0  0
    1.9883   -2.9478    1.5504 H   0  0  0  0  0  0  0  0  0  0  0  0
  1  2  1  0  0  0  0
  1 41  1  0  0  0  0
  1 42  1  0  0  0  0
  1 43  1  0  0  0  0
  2  3  2  0  0  0  0
  2  4  2  0  0  0  0
  2 37  1  0  0  0  0
  4  5  1  0  0  0  0
  5  6  1  0  0  0  0
  5 36  2  0  0  0  0
  6  7  2  0  0  0  0
  6 44  1  0  0  0  0
  7  8  1  0  0  0  0
  7 45  1  0  0  0  0
  8  9  1  0  0  0  0
  8 35  2  0  0  0  0
  9 10  1  0  0  0  0
  9 34  2  0  0  0  0
 10 11  2  0  0  0  0
 10 46  1  0  0  0  0
 11 12  1  0  0  0  0
 11 47  1  0  0  0  0
 12 13  1  0  0  0  0
 12 33  2  0  0  0  0
 13 14  1  0  0  0  0
 13 31  2  0  0  0  0
 14 15  2  0  0  0  0
 15 16  1  0  0  0  0
 15 29  1  0  0  0  0
 16 17  2  0  0  0  0
 17 18  1  0  0  0  0
 17 28  1  0  0  0  0
 18 19  1  0  0  0  0
 19 20  1  0  0  0  0
 19 27  1  0  0  0  0
 19 48  1  0  0  0  0
 20 21  1  0  0  0  0
 20 49  1  0  0  0  0
 20 50  1  0  0  0  0
 21 22  1  0  0  0  0
 22 23  1  0  0  0  0
 22 27  1  0  0  0  0
 22 51  1  0  0  0  0
 23 24  1  0  0  0  0
 23 25  1  0  0  0  0
 23 52  1  0  0  0  0
 24 53  1  0  0  0  0
 25 26  1  0  0  0  0
 25 54  1  0  0  0  0
 25 55  1  0  0  0  0
 26 27  1  0  0  0  0
 27 56  1  0  0  0  0
 28 29  1  0  0  0  0
 28 57  1  0  0  0  0
 29 30  2  0  0  0  0
 30 31  1  0  0  0  0
 30 58  1  0  0  0  0
 31 32  1  0  0  0  0
 33 34  1  0  0  0  0
 33 59  1  0  0  0  0
 34 60  1  0  0  0  0
 35 36  1  0  0  0  0
 35 61  1  0  0  0  0
 36 62  1  0  0  0  0
 37 38  1  0  0  0  0
 37 40  1  0  0  0  0
 38 39  1  0  0  0  0
 38 63  1  0  0  0  0
 38 64  1  0  0  0  0
 39 40  1  0  0  0  0
 39 65  1  0  0  0  0
 39 66  1  0  0  0  0
 40 67  1  0  0  0  0
 40 68  1  0  0  0  0
M  END
