
 OpenBabel03142511523D

 55 58  0  0  0  0  0  0  0  0999 V2000
    0.9185    0.0098    0.0571 C   0  0  0  0  0  0  0  0  0  0  0  0
    0.4285   -0.1428    1.4346 N   0  0  0  0  0  0  0  0  0  0  0  0
   -0.1543    0.9761    2.3011 C   0  0  0  0  0  0  0  0  0  0  0  0
   -1.4698    0.6131    2.7256 C   0  0  0  0  0  0  0  0  0  0  0  0
   -1.5195   -0.5740    3.5191 N   0  0  0  0  0  0  0  0  0  0  0  0
   -0.6879   -0.3972    4.7183 C   0  0  0  0  0  0  0  0  0  0  0  0
    0.7488   -0.1252    4.3029 C   0  0  0  0  0  0  0  0  0  0  0  0
    0.8017    1.1377    3.4588 C   0  0  0  0  0  0  0  0  0  0  0  0
    0.3125    2.2344    4.2167 O   0  0  0  0  0  0  0  0  0  0  0  0
   -1.0152    2.2136    4.7199 C   0  0  0  0  0  0  0  0  0  0  0  0
   -1.8068    3.3434    4.5955 C   0  0  0  0  0  0  0  0  0  0  0  0
   -2.9838    3.3080    5.3799 C   0  0  0  0  0  0  0  0  0  0  0  0
   -3.5041    2.2115    5.9006 C   0  0  0  0  0  0  0  0  0  0  0  0
   -4.9264    2.1759    6.4355 C   0  0  0  0  0  0  0  0  0  0  0  0
   -5.9805    2.4575    5.5822 C   0  0  0  0  0  0  0  0  0  0  0  0
   -7.2107    2.6806    6.2449 C   0  0  0  0  0  0  0  0  0  0  0  0
   -8.2545    3.3500    5.5125 C   0  0  0  0  0  0  0  0  0  0  0  0
   -8.0139    3.7906    4.0778 C   0  0  0  0  0  0  0  0  0  0  0  0
   -8.9350    4.3814    3.4315 O   0  0  0  0  0  0  0  0  0  0  0  0
   -6.7600    3.5420    3.4595 O   0  0  0  0  0  0  0  0  0  0  0  0
   -9.5263    3.6021    6.1395 C   0  0  0  0  0  0  0  0  0  0  0  0
   -8.7683    2.2750    7.9860 N   0  0  0  0  0  0  0  0  0  0  0  0
   -7.4682    2.3175    7.4882 C   0  0  0  0  0  0  0  0  0  0  0  0
   -6.3899    1.9855    8.2605 C   0  0  0  0  0  0  0  0  0  0  0  0
   -5.1349    1.8753    7.7120 C   0  0  0  0  0  0  0  0  0  0  0  0
   -3.7764    1.3247    8.7217 Cl  0  0  0  0  0  0  0  0  0  0  0  0
   -2.6946    1.1102    5.9327 C   0  0  0  0  0  0  0  0  0  0  0  0
   -1.4743    1.1115    5.3010 C   0  0  0  0  0  0  0  0  0  0  0  0
   -0.9919   -1.7556    2.7019 C   0  0  0  0  0  0  0  0  0  0  0  0
    0.4350   -1.4480    2.2372 C   0  0  0  0  0  0  0  0  0  0  0  0
    1.4592   -2.1606    2.4785 O   0  0  0  0  0  0  0  0  0  0  0  0
    0.5618    0.9337   -0.3480 H   0  0  0  0  0  0  0  0  0  0  0  0
    0.5618   -0.8030   -0.5404 H   0  0  0  0  0  0  0  0  0  0  0  0
    1.9885    0.0098    0.0571 H   0  0  0  0  0  0  0  0  0  0  0  0
    0.4688    1.1253    3.1580 H   0  0  0  0  0  0  0  0  0  0  0  0
   -0.2001    1.8810    1.7319 H   0  0  0  0  0  0  0  0  0  0  0  0
   -2.0367    0.4162    1.8397 H   0  0  0  0  0  0  0  0  0  0  0  0
   -1.8715    1.4199    3.3022 H   0  0  0  0  0  0  0  0  0  0  0  0
   -1.0566    0.4292    5.2893 H   0  0  0  0  0  0  0  0  0  0  0  0
   -0.7252   -1.2862    5.3125 H   0  0  0  0  0  0  0  0  0  0  0  0
    1.3541    0.0035    5.1758 H   0  0  0  0  0  0  0  0  0  0  0  0
    1.1174   -0.9516    3.7319 H   0  0  0  0  0  0  0  0  0  0  0  0
    1.8131    1.3292    3.1665 H   0  0  0  0  0  0  0  0  0  0  0  0
    0.1964    1.0090    2.5860 H   0  0  0  0  0  0  0  0  0  0  0  0
   -1.5513    4.1682    3.9635 H   0  0  0  0  0  0  0  0  0  0  0  0
   -3.4874    4.2339    5.5641 H   0  0  0  0  0  0  0  0  0  0  0  0
   -5.8742    2.5024    4.5185 H   0  0  0  0  0  0  0  0  0  0  0  0
   -6.6017    3.8318    2.5156 H   0  0  0  0  0  0  0  0  0  0  0  0
  -10.3018    4.0995    5.5954 H   0  0  0  0  0  0  0  0  0  0  0  0
   -8.9359    1.9905    8.9510 H   0  0  0  0  0  0  0  0  0  0  0  0
   -6.5252    1.8090    9.3071 H   0  0  0  0  0  0  0  0  0  0  0  0
   -3.0159    0.2346    6.4572 H   0  0  0  0  0  0  0  0  0  0  0  0
   -0.8888    0.2162    5.2771 H   0  0  0  0  0  0  0  0  0  0  0  0
   -1.6212   -1.9146    1.8512 H   0  0  0  0  0  0  0  0  0  0  0  0
   -0.9888   -2.6373    3.3081 H   0  0  0  0  0  0  0  0  0  0  0  0
  1  2  1  0  0  0  0
  1 32  1  0  0  0  0
  1 33  1  0  0  0  0
  1 34  1  0  0  0  0
  2  3  1  0  0  0  0
  2 30  1  0  0  0  0
  3  4  1  0  0  0  0
  3 35  1  0  0  0  0
  3 36  1  0  0  0  0
  4  5  1  0  0  0  0
  4 37  1  0  0  0  0
  4 38  1  0  0  0  0
  5  6  1  0  0  0  0
  5 29  1  0  0  0  0
  6  7  1  0  0  0  0
  6 39  1  0  0  0  0
  6 40  1  0  0  0  0
  7  8  1  0  0  0  0
  7 41  1  0  0  0  0
  7 42  1  0  0  0  0
  8  9  1  0  0  0  0
  8 43  1  0  0  0  0
  8 44  1  0  0  0  0
  9 10  1  0  0  0  0
 10 11  1  0  0  0  0
 10 28  2  0  0  0  0
 11 12  2  0  0  0  0
 11 45  1  0  0  0  0
 12 13  1  0  0  0  0
 12 46  1  0  0  0  0
 13 14  1  0  0  0  0
 13 27  2  0  0  0  0
 14 15  1  0  0  0  0
 14 25  2  0  0  0  0
 15 16  2  0  0  0  0
 15 47  1  0  0  0  0
 16 17  1  0  0  0  0
 16 23  1  0  0  0  0
 17 18  1  0  0  0  0
 17 21  2  0  0  0  0
 18 19  2  0  0  0  0
 18 20  1  0  0  0  0
 20 48  1  0  0  0  0
 21 22  1  0  0  0  0
 21 49  1  0  0  0  0
 22 23  1  0  0  0  0
 22 50  1  0  0  0  0
 23 24  2  0  0  0  0
 24 25  1  0  0  0  0
 24 51  1  0  0  0  0
 25 26  1  0  0  0  0
 27 28  1  0  0  0  0
 27 52  1  0  0  0  0
 28 53  1  0  0  0  0
 29 30  1  0  0  0  0
 29 54  1  0  0  0  0
 29 55  1  0  0  0  0
 30 31  2  0  0  0  0
M  END
