
 OpenBabel03132514253D

 65 68  0  0  0  0  0  0  0  0999 V2000
    1.0764   -0.0442    0.0470 C   0  0  0  0  0  0  0  0  0  0  0  0
    0.5698    0.0862   -1.3801 C   0  0  0  0  0  0  0  0  0  0  0  0
    1.0598   -1.0460   -2.1794 N   0  0  0  0  0  0  0  0  0  0  0  0
    0.5698   -0.9199   -3.5596 C   0  0  0  0  0  0  0  0  0  0  0  0
    1.0764    0.3813   -4.1602 C   0  0  0  0  0  0  0  0  0  0  0  0
    2.5298   -1.0460   -2.1794 C   0  0  0  0  0  0  0  0  0  0  0  0
    3.0364    0.2552   -2.7801 C   0  0  0  0  0  0  0  0  0  0  0  0
    2.5464    1.3874   -1.9808 N   0  0  0  0  0  0  0  0  0  0  0  0
    3.5017    2.3001   -1.3364 C   0  0  0  0  0  0  0  0  0  0  0  0
    3.0781    3.2790   -0.6453 O   0  0  0  0  0  0  0  0  0  0  0  0
    4.9961    2.0732   -1.4966 C   0  0  0  0  0  0  0  0  0  0  0  0
    5.6502    1.7748   -2.6661 C   0  0  0  0  0  0  0  0  0  0  0  0
    5.1456    1.6244   -4.0597 C   0  0  0  0  0  0  0  0  0  0  0  0
    6.9725    1.6278   -2.3680 N   0  0  0  0  0  0  0  0  0  0  0  0
    7.1903    1.8478   -1.0293 C   0  0  0  0  0  0  0  0  0  0  0  0
    8.5312    1.7877   -0.3160 C   0  0  0  0  0  0  0  0  0  0  0  0
    9.5279    2.6099   -0.6878 C   0  0  0  0  0  0  0  0  0  0  0  0
    9.3235    3.6391   -1.7515 C   0  0  0  0  0  0  0  0  0  0  0  0
    8.3165    3.8391   -2.4329 O   0  0  0  0  0  0  0  0  0  0  0  0
   10.4711    4.3559   -1.8373 N   0  0  0  0  0  0  0  0  0  0  0  0
   11.4320    3.8863   -0.9352 C   0  0  0  0  0  0  0  0  0  0  0  0
   12.7052    4.3759   -0.7621 C   0  0  0  0  0  0  0  0  0  0  0  0
   13.5202    3.7299    0.1608 C   0  0  0  0  0  0  0  0  0  0  0  0
   13.0443    2.6180    0.8410 C   0  0  0  0  0  0  0  0  0  0  0  0
   13.9668    1.8868    1.8026 C   0  0  0  0  0  0  0  0  0  0  0  0
   14.3076    0.5420    1.6380 C   0  0  0  0  0  0  0  0  0  0  0  0
   15.2489    0.0048    2.5070 C   0  0  0  0  0  0  0  0  0  0  0  0
   15.8027    0.8103    3.4755 C   0  0  0  0  0  0  0  0  0  0  0  0
   15.4649    2.0915    3.6513 N   0  0  0  0  0  0  0  0  0  0  0  0
   14.5538    2.6169    2.8173 C   0  0  0  0  0  0  0  0  0  0  0  0
   11.7460    2.1562    0.6654 C   0  0  0  0  0  0  0  0  0  0  0  0
   10.9027    2.8076   -0.2255 C   0  0  0  0  0  0  0  0  0  0  0  0
    5.9769    2.1317   -0.4526 C   0  0  0  0  0  0  0  0  0  0  0  0
    5.7051    2.4075    1.0047 C   0  0  0  0  0  0  0  0  0  0  0  0
    0.7198   -0.9601    0.4698 H   0  0  0  0  0  0  0  0  0  0  0  0
    0.7198    0.7800    0.6288 H   0  0  0  0  0  0  0  0  0  0  0  0
    2.1464   -0.0442    0.0470 H   0  0  0  0  0  0  0  0  0  0  0  0
   -0.5002    0.0862   -1.3801 H   0  0  0  0  0  0  0  0  0  0  0  0
    0.9264    1.0022   -1.8029 H   0  0  0  0  0  0  0  0  0  0  0  0
    0.9264   -1.7440   -4.1414 H   0  0  0  0  0  0  0  0  0  0  0  0
   -0.5002   -0.9199   -3.5596 H   0  0  0  0  0  0  0  0  0  0  0  0
    2.1464    0.3813   -4.1603 H   0  0  0  0  0  0  0  0  0  0  0  0
    0.7197    0.4731   -5.1649 H   0  0  0  0  0  0  0  0  0  0  0  0
    0.7198    1.2054   -3.5784 H   0  0  0  0  0  0  0  0  0  0  0  0
    2.8864   -1.1378   -1.1748 H   0  0  0  0  0  0  0  0  0  0  0  0
    2.8864   -1.8701   -2.7612 H   0  0  0  0  0  0  0  0  0  0  0  0
    4.1064    0.2552   -2.7801 H   0  0  0  0  0  0  0  0  0  0  0  0
    2.6798    0.3469   -3.7847 H   0  0  0  0  0  0  0  0  0  0  0  0
    1.5436    1.5396   -1.8733 H   0  0  0  0  0  0  0  0  0  0  0  0
    4.4207    0.8382   -4.0937 H   0  0  0  0  0  0  0  0  0  0  0  0
    4.6928    2.5409   -4.3760 H   0  0  0  0  0  0  0  0  0  0  0  0
    5.9609    1.3862   -4.7105 H   0  0  0  0  0  0  0  0  0  0  0  0
    7.6981    1.3882   -3.0437 H   0  0  0  0  0  0  0  0  0  0  0  0
    8.6819    1.0911    0.4820 H   0  0  0  0  0  0  0  0  0  0  0  0
   10.6154    5.1370   -2.4772 H   0  0  0  0  0  0  0  0  0  0  0  0
   13.0554    5.2216   -1.3163 H   0  0  0  0  0  0  0  0  0  0  0  0
   14.5111    4.0889    0.3458 H   0  0  0  0  0  0  0  0  0  0  0  0
   13.8594   -0.0532    0.8700 H   0  0  0  0  0  0  0  0  0  0  0  0
   15.5395   -1.0216    2.4243 H   0  0  0  0  0  0  0  0  0  0  0  0
   16.5433    0.3885    4.1225 H   0  0  0  0  0  0  0  0  0  0  0  0
   14.2714    3.6412    2.9435 H   0  0  0  0  0  0  0  0  0  0  0  0
   11.3982    1.3049    1.2124 H   0  0  0  0  0  0  0  0  0  0  0  0
    5.2494    3.3702    1.1066 H   0  0  0  0  0  0  0  0  0  0  0  0
    5.0469    1.6584    1.3927 H   0  0  0  0  0  0  0  0  0  0  0  0
    6.6262    2.3895    1.5489 H   0  0  0  0  0  0  0  0  0  0  0  0
  1  2  1  0  0  0  0
  1 35  1  0  0  0  0
  1 36  1  0  0  0  0
  1 37  1  0  0  0  0
  2  3  1  0  0  0  0
  2 38  1  0  0  0  0
  2 39  1  0  0  0  0
  3  4  1  0  0  0  0
  3  6  1  0  0  0  0
  4  5  1  0  0  0  0
  4 40  1  0  0  0  0
  4 41  1  0  0  0  0
  5 42  1  0  0  0  0
  5 43  1  0  0  0  0
  5 44  1  0  0  0  0
  6  7  1  0  0  0  0
  6 45  1  0  0  0  0
  6 46  1  0  0  0  0
  7  8  1  0  0  0  0
  7 47  1  0  0  0  0
  7 48  1  0  0  0  0
  8  9  1  0  0  0  0
  8 49  1  0  0  0  0
  9 10  2  0  0  0  0
  9 11  1  0  0  0  0
 11 12  2  0  0  0  0
 11 33  1  0  0  0  0
 12 13  1  0  0  0  0
 12 14  1  0  0  0  0
 13 50  1  0  0  0  0
 13 51  1  0  0  0  0
 13 52  1  0  0  0  0
 14 15  1  0  0  0  0
 14 53  1  0  0  0  0
 15 16  1  0  0  0  0
 15 33  2  0  0  0  0
 16 17  2  0  0  0  0
 16 54  1  0  0  0  0
 17 18  1  0  0  0  0
 17 32  1  0  0  0  0
 18 19  2  0  0  0  0
 18 20  1  0  0  0  0
 20 21  1  0  0  0  0
 20 55  1  0  0  0  0
 21 22  1  0  0  0  0
 21 32  2  0  0  0  0
 22 23  2  0  0  0  0
 22 56  1  0  0  0  0
 23 24  1  0  0  0  0
 23 57  1  0  0  0  0
 24 25  1  0  0  0  0
 24 31  2  0  0  0  0
 25 26  1  0  0  0  0
 25 30  2  0  0  0  0
 26 27  2  0  0  0  0
 26 58  1  0  0  0  0
 27 28  1  0  0  0  0
 27 59  1  0  0  0  0
 28 29  2  0  0  0  0
 28 60  1  0  0  0  0
 29 30  1  0  0  0  0
 30 61  1  0  0  0  0
 31 32  1  0  0  0  0
 31 62  1  0  0  0  0
 33 34  1  0  0  0  0
 34 63  1  0  0  0  0
 34 64  1  0  0  0  0
 34 65  1  0  0  0  0
M  END
