
 OpenBabel03132512093D

 34 37  0  0  0  0  0  0  0  0999 V2000
    2.1260    0.0590    0.0070 N   0  0  0  0  0  0  0  0  0  0  0  0
    0.8100   -0.1810   -0.0010 C   0  0  0  0  0  0  0  0  0  0  0  0
    0.2760   -1.3730   -0.0060 N   0  0  0  0  0  0  0  0  0  0  0  0
   -1.1070   -1.2770   -0.0020 C   0  0  0  0  0  0  0  0  0  0  0  0
   -2.0031   -2.5047   -0.0138 C   0  0  0  0  0  0  0  0  0  0  0  0
   -1.9343   -3.4377    1.0099 C   0  0  0  0  0  0  0  0  0  0  0  0
   -2.7412   -4.5646    0.9963 C   0  0  0  0  0  0  0  0  0  0  0  0
   -3.6072   -4.7087   -0.0222 C   0  0  0  0  0  0  0  0  0  0  0  0
   -4.4023   -5.8084   -0.0388 F   0  0  0  0  0  0  0  0  0  0  0  0
   -3.7127   -3.8221   -1.0387 C   0  0  0  0  0  0  0  0  0  0  0  0
   -2.8885   -2.7077   -1.0321 C   0  0  0  0  0  0  0  0  0  0  0  0
   -1.6050   -0.0270    0.0130 C   0  0  0  0  0  0  0  0  0  0  0  0
   -3.0861    0.3135    0.0411 C   0  0  0  0  0  0  0  0  0  0  0  0
   -3.8379   -0.1535    1.1312 C   0  0  0  0  0  0  0  0  0  0  0  0
   -5.1807    0.1057    1.2010 C   0  0  0  0  0  0  0  0  0  0  0  0
   -5.7324    0.8697    0.1404 C   0  0  0  0  0  0  0  0  0  0  0  0
   -7.0702    1.1605    0.1756 N   0  0  0  0  0  0  0  0  0  0  0  0
   -7.5519    1.8655   -0.8142 C   0  0  0  0  0  0  0  0  0  0  0  0
   -6.7909    2.3469   -1.8823 C   0  0  0  0  0  0  0  0  0  0  0  0
   -5.4702    2.0676   -1.9180 C   0  0  0  0  0  0  0  0  0  0  0  0
   -4.8913    1.3039   -0.8980 C   0  0  0  0  0  0  0  0  0  0  0  0
   -3.5605    1.0166   -0.9482 N   0  0  0  0  0  0  0  0  0  0  0  0
   -0.3370    1.1300   -0.0040 S   0  0  0  0  0  0  0  0  0  0  0  0
    2.4692    1.0195    0.0114 H   0  0  0  0  0  0  0  0  0  0  0  0
    2.7862   -0.7185    0.0087 H   0  0  0  0  0  0  0  0  0  0  0  0
   -1.2509   -3.2859    1.8191 H   0  0  0  0  0  0  0  0  0  0  0  0
   -2.6768   -5.2979    1.7729 H   0  0  0  0  0  0  0  0  0  0  0  0
   -4.4164   -3.9775   -1.8297 H   0  0  0  0  0  0  0  0  0  0  0  0
   -2.9471   -2.0002   -1.8327 H   0  0  0  0  0  0  0  0  0  0  0  0
   -3.3608   -0.7128    1.9086 H   0  0  0  0  0  0  0  0  0  0  0  0
   -5.7817   -0.2491    2.0120 H   0  0  0  0  0  0  0  0  0  0  0  0
   -8.5983    2.0887   -0.8058 H   0  0  0  0  0  0  0  0  0  0  0  0
   -7.2462    2.9265   -2.6580 H   0  0  0  0  0  0  0  0  0  0  0  0
   -4.8674    2.4294   -2.7246 H   0  0  0  0  0  0  0  0  0  0  0  0
  1  2  1  0  0  0  0
  1 24  1  0  0  0  0
  1 25  1  0  0  0  0
  2  3  2  0  0  0  0
  2 23  1  0  0  0  0
  3  4  1  0  0  0  0
  4  5  1  0  0  0  0
  4 12  2  0  0  0  0
  5  6  1  0  0  0  0
  5 11  2  0  0  0  0
  6  7  2  0  0  0  0
  6 26  1  0  0  0  0
  7  8  1  0  0  0  0
  7 27  1  0  0  0  0
  8  9  1  0  0  0  0
  8 10  2  0  0  0  0
 10 11  1  0  0  0  0
 10 28  1  0  0  0  0
 11 29  1  0  0  0  0
 12 13  1  0  0  0  0
 12 23  1  0  0  0  0
 13 14  1  0  0  0  0
 13 22  2  0  0  0  0
 14 15  2  0  0  0  0
 14 30  1  0  0  0  0
 15 16  1  0  0  0  0
 15 31  1  0  0  0  0
 16 17  1  0  0  0  0
 16 21  2  0  0  0  0
 17 18  2  0  0  0  0
 18 19  1  0  0  0  0
 18 32  1  0  0  0  0
 19 20  2  0  0  0  0
 19 33  1  0  0  0  0
 20 21  1  0  0  0  0
 20 34  1  0  0  0  0
 21 22  1  0  0  0  0
M  END
