
 OpenBabel03132512093D

 70 75  0  0  0  0  0  0  0  0999 V2000
    1.0240    0.0717    0.0654 C   0  0  0  0  0  0  0  0  0  0  0  0
    0.5174   -0.1910   -1.3433 C   0  0  0  0  0  0  0  0  0  0  0  0
    1.0240   -1.5424   -1.8203 C   0  0  0  0  0  0  0  0  0  0  0  0
   -0.9026   -0.1910   -1.3433 O   0  0  0  0  0  0  0  0  0  0  0  0
    1.0240    0.8978   -2.2752 C   0  0  0  0  0  0  0  0  0  0  0  0
    1.9546    1.7374   -1.4028 C   0  0  0  0  0  0  0  0  0  0  0  0
    1.1623    2.6157   -0.4588 C   0  0  0  0  0  0  0  0  0  0  0  0
    0.2565    3.4938   -1.2105 N   0  0  0  0  0  0  0  0  0  0  0  0
   -0.4601    4.3744   -0.2767 C   0  0  0  0  0  0  0  0  0  0  0  0
   -1.2657    3.5311    0.6980 C   0  0  0  0  0  0  0  0  0  0  0  0
   -0.5843    2.6410    1.4964 C   0  0  0  0  0  0  0  0  0  0  0  0
   -1.1290    2.3588    2.7721 C   0  0  0  0  0  0  0  0  0  0  0  0
   -2.5175    2.3499    2.8402 C   0  0  0  0  0  0  0  0  0  0  0  0
   -3.1824    1.7119    3.7848 N   0  0  0  0  0  0  0  0  0  0  0  0
   -4.5044    1.7328    3.7985 C   0  0  0  0  0  0  0  0  0  0  0  0
   -5.2395    0.9873    4.9005 C   0  0  0  0  0  0  0  0  0  0  0  0
   -6.0637    0.0263    4.5423 C   0  0  0  0  0  0  0  0  0  0  0  0
   -6.3401   -0.1916    3.2597 F   0  0  0  0  0  0  0  0  0  0  0  0
   -6.6387   -0.7560    5.5379 C   0  0  0  0  0  0  0  0  0  0  0  0
   -5.9484   -0.8189    6.7689 C   0  0  0  0  0  0  0  0  0  0  0  0
   -5.2968    0.3454    7.1718 C   0  0  0  0  0  0  0  0  0  0  0  0
   -5.0125    0.5757    8.5157 N   0  0  0  0  0  0  0  0  0  0  0  0
   -5.3803   -0.3635    9.4762 C   0  0  0  0  0  0  0  0  0  0  0  0
   -4.2856    2.4363    6.6368 C   0  0  0  0  0  0  0  0  0  0  0  0
   -4.9567    1.2219    6.2506 C   0  0  0  0  0  0  0  0  0  0  0  0
   -5.2059    2.3782    2.8888 N   0  0  0  0  0  0  0  0  0  0  0  0
   -4.6164    3.0477    1.9044 C   0  0  0  0  0  0  0  0  0  0  0  0
   -5.4142    3.7623    0.8976 N   0  0  0  0  0  0  0  0  0  0  0  0
   -6.3593    4.8526    1.2002 C   0  0  0  0  0  0  0  0  0  0  0  0
   -7.7403    4.4679    0.7188 C   0  0  0  0  0  0  0  0  0  0  0  0
   -7.7336    4.1813   -0.6796 O   0  0  0  0  0  0  0  0  0  0  0  0
   -6.8406    3.1005   -0.9501 C   0  0  0  0  0  0  0  0  0  0  0  0
   -5.4207    3.4496   -0.5458 C   0  0  0  0  0  0  0  0  0  0  0  0
   -3.2270    3.0567    1.8488 C   0  0  0  0  0  0  0  0  0  0  0  0
   -2.5423    3.7246    0.8712 N   0  0  0  0  0  0  0  0  0  0  0  0
   -0.7065    2.6791   -1.9492 C   0  0  0  0  0  0  0  0  0  0  0  0
   -0.0037    1.7934   -2.9646 C   0  0  0  0  0  0  0  0  0  0  0  0
    0.6674   -0.6947    0.7214 H   0  0  0  0  0  0  0  0  0  0  0  0
    0.6674    1.0230    0.4012 H   0  0  0  0  0  0  0  0  0  0  0  0
    2.0940    0.0717    0.0654 H   0  0  0  0  0  0  0  0  0  0  0  0
    0.6674   -2.3088   -1.1643 H   0  0  0  0  0  0  0  0  0  0  0  0
    0.6674   -1.7272   -2.8120 H   0  0  0  0  0  0  0  0  0  0  0  0
    2.0940   -1.5424   -1.8203 H   0  0  0  0  0  0  0  0  0  0  0  0
   -1.2360   -0.9072   -0.7303 H   0  0  0  0  0  0  0  0  0  0  0  0
    1.4789    0.4164   -3.1156 H   0  0  0  0  0  0  0  0  0  0  0  0
    2.5676    1.0787   -0.8239 H   0  0  0  0  0  0  0  0  0  0  0  0
    2.5607    2.3559   -2.0313 H   0  0  0  0  0  0  0  0  0  0  0  0
    0.5815    1.9921    0.1883 H   0  0  0  0  0  0  0  0  0  0  0  0
    1.8380    3.2151    0.1149 H   0  0  0  0  0  0  0  0  0  0  0  0
    0.2452    4.9695    0.2648 H   0  0  0  0  0  0  0  0  0  0  0  0
   -1.1200    5.0140   -0.8248 H   0  0  0  0  0  0  0  0  0  0  0  0
    0.3227    2.1799    1.1654 H   0  0  0  0  0  0  0  0  0  0  0  0
   -0.5138    2.1656    3.6260 H   0  0  0  0  0  0  0  0  0  0  0  0
   -7.5564   -1.2830    5.3797 H   0  0  0  0  0  0  0  0  0  0  0  0
   -5.9271   -1.7110    7.3594 H   0  0  0  0  0  0  0  0  0  0  0  0
   -4.5351    1.4322    8.7965 H   0  0  0  0  0  0  0  0  0  0  0  0
   -5.8812   -1.2620    9.1817 H   0  0  0  0  0  0  0  0  0  0  0  0
   -4.0064    3.1530    5.8930 H   0  0  0  0  0  0  0  0  0  0  0  0
   -6.0441    5.7469    0.7044 H   0  0  0  0  0  0  0  0  0  0  0  0
   -6.3835    5.0212    2.2565 H   0  0  0  0  0  0  0  0  0  0  0  0
   -8.0523    3.5901    1.2451 H   0  0  0  0  0  0  0  0  0  0  0  0
   -8.4144    5.2773    0.9068 H   0  0  0  0  0  0  0  0  0  0  0  0
   -6.8553    2.9032   -2.0017 H   0  0  0  0  0  0  0  0  0  0  0  0
   -7.1584    2.2390   -0.4008 H   0  0  0  0  0  0  0  0  0  0  0  0
   -5.0735    4.2915   -1.1075 H   0  0  0  0  0  0  0  0  0  0  0  0
   -4.7747    2.6188   -0.7391 H   0  0  0  0  0  0  0  0  0  0  0  0
   -1.3761    3.3309   -2.4705 H   0  0  0  0  0  0  0  0  0  0  0  0
   -1.2449    2.0626   -1.2600 H   0  0  0  0  0  0  0  0  0  0  0  0
    0.5009    2.4150   -3.6744 H   0  0  0  0  0  0  0  0  0  0  0  0
   -0.7287    1.1811   -3.4588 H   0  0  0  0  0  0  0  0  0  0  0  0
  1  2  1  0  0  0  0
  1 38  1  0  0  0  0
  1 39  1  0  0  0  0
  1 40  1  0  0  0  0
  2  3  1  0  0  0  0
  2  4  1  0  0  0  0
  2  5  1  0  0  0  0
  3 41  1  0  0  0  0
  3 42  1  0  0  0  0
  3 43  1  0  0  0  0
  4 44  1  0  0  0  0
  5  6  1  0  0  0  0
  5 37  1  0  0  0  0
  5 45  1  0  0  0  0
  6  7  1  0  0  0  0
  6 46  1  0  0  0  0
  6 47  1  0  0  0  0
  7  8  1  0  0  0  0
  7 48  1  0  0  0  0
  7 49  1  0  0  0  0
  8  9  1  0  0  0  0
  8 36  1  0  0  0  0
  9 10  1  0  0  0  0
  9 50  1  0  0  0  0
  9 51  1  0  0  0  0
 10 11  1  0  0  0  0
 10 35  2  0  0  0  0
 11 12  2  0  0  0  0
 11 52  1  0  0  0  0
 12 13  1  0  0  0  0
 12 53  1  0  0  0  0
 13 14  1  0  0  0  0
 13 34  2  0  0  0  0
 14 15  2  0  0  0  0
 15 16  1  0  0  0  0
 15 26  1  0  0  0  0
 16 17  1  0  0  0  0
 16 25  2  0  0  0  0
 17 18  1  0  0  0  0
 17 19  2  0  0  0  0
 19 20  1  0  0  0  0
 19 54  1  0  0  0  0
 20 21  2  0  0  0  0
 20 55  1  0  0  0  0
 21 22  1  0  0  0  0
 21 25  1  0  0  0  0
 22 23  1  0  0  0  0
 22 56  1  0  0  0  0
 23 24  2  0  0  0  0
 23 57  1  0  0  0  0
 24 25  1  0  0  0  0
 24 58  1  0  0  0  0
 26 27  2  0  0  0  0
 27 28  1  0  0  0  0
 27 34  1  0  0  0  0
 28 29  1  0  0  0  0
 28 33  1  0  0  0  0
 29 30  1  0  0  0  0
 29 59  1  0  0  0  0
 29 60  1  0  0  0  0
 30 31  1  0  0  0  0
 30 61  1  0  0  0  0
 30 62  1  0  0  0  0
 31 32  1  0  0  0  0
 32 33  1  0  0  0  0
 32 63  1  0  0  0  0
 32 64  1  0  0  0  0
 33 65  1  0  0  0  0
 33 66  1  0  0  0  0
 34 35  1  0  0  0  0
 36 37  1  0  0  0  0
 36 67  1  0  0  0  0
 36 68  1  0  0  0  0
 37 69  1  0  0  0  0
 37 70  1  0  0  0  0
M  END
