
 OpenBabel03132512083D

 42 45  0  0  0  0  0  0  0  0999 V2000
    0.9763   -0.0475    0.0847 O   0  0  0  0  0  0  0  0  0  0  0  0
    2.2472   -0.0475    0.0847 C   0  0  0  0  0  0  0  0  0  0  0  0
    2.9572   -0.9497   -0.7509 O   0  0  0  0  0  0  0  0  0  0  0  0
    3.0072    0.9183    0.9792 C   0  0  0  0  0  0  0  0  0  0  0  0
    3.9816    1.7714    0.5152 C   0  0  0  0  0  0  0  0  0  0  0  0
    4.3585    2.6477    1.4979 N   0  0  0  0  0  0  0  0  0  0  0  0
    3.6641    2.3467    2.6470 C   0  0  0  0  0  0  0  0  0  0  0  0
    3.7722    2.9167    3.9201 C   0  0  0  0  0  0  0  0  0  0  0  0
    2.9860    2.3524    4.9048 C   0  0  0  0  0  0  0  0  0  0  0  0
    3.0863    2.9878    6.5274 Cl  0  0  0  0  0  0  0  0  0  0  0  0
    2.1229    1.2670    4.6729 C   0  0  0  0  0  0  0  0  0  0  0  0
    1.2987    0.6947    5.8146 C   0  0  0  0  0  0  0  0  0  0  0  0
    1.3804   -0.6493    6.1397 C   0  0  0  0  0  0  0  0  0  0  0  0
    0.3038   -1.1140    6.9316 C   0  0  0  0  0  0  0  0  0  0  0  0
   -0.5134   -0.3346    7.6161 C   0  0  0  0  0  0  0  0  0  0  0  0
   -1.3625   -0.8489    8.6315 O   0  0  0  0  0  0  0  0  0  0  0  0
   -2.2266    0.0240    9.3440 C   0  0  0  0  0  0  0  0  0  0  0  0
   -1.4016    1.0830   10.0569 C   0  0  0  0  0  0  0  0  0  0  0  0
   -1.7792    2.4136    9.8602 C   0  0  0  0  0  0  0  0  0  0  0  0
   -1.1090    3.3880   10.5890 C   0  0  0  0  0  0  0  0  0  0  0  0
   -0.1197    3.0064   11.4661 C   0  0  0  0  0  0  0  0  0  0  0  0
    0.2603    1.7371   11.6425 N   0  0  0  0  0  0  0  0  0  0  0  0
   -0.3807    0.7901   10.9397 C   0  0  0  0  0  0  0  0  0  0  0  0
   -0.4980    0.9943    7.2947 C   0  0  0  0  0  0  0  0  0  0  0  0
    0.4405    1.5009    6.4283 C   0  0  0  0  0  0  0  0  0  0  0  0
    2.0231    0.7186    3.4041 C   0  0  0  0  0  0  0  0  0  0  0  0
    2.7944    1.2625    2.3614 C   0  0  0  0  0  0  0  0  0  0  0  0
    3.9572   -0.9497   -0.7509 H   0  0  0  0  0  0  0  0  0  0  0  0
    4.3880    1.7529   -0.4744 H   0  0  0  0  0  0  0  0  0  0  0  0
    5.0407    3.3989    1.3950 H   0  0  0  0  0  0  0  0  0  0  0  0
    4.4251    3.7408    4.1187 H   0  0  0  0  0  0  0  0  0  0  0  0
    2.1846   -1.2790    5.8208 H   0  0  0  0  0  0  0  0  0  0  0  0
    0.1405   -2.1704    6.9792 H   0  0  0  0  0  0  0  0  0  0  0  0
   -2.8994    0.4971    8.6595 H   0  0  0  0  0  0  0  0  0  0  0  0
   -2.7858   -0.5367   10.0636 H   0  0  0  0  0  0  0  0  0  0  0  0
   -2.5569    2.6730    9.1727 H   0  0  0  0  0  0  0  0  0  0  0  0
   -1.3587    4.4216   10.4700 H   0  0  0  0  0  0  0  0  0  0  0  0
    0.3715    3.7662   12.0373 H   0  0  0  0  0  0  0  0  0  0  0  0
   -0.0894   -0.2314   11.0683 H   0  0  0  0  0  0  0  0  0  0  0  0
   -1.2272    1.6492    7.7240 H   0  0  0  0  0  0  0  0  0  0  0  0
    0.4800    2.5546    6.2465 H   0  0  0  0  0  0  0  0  0  0  0  0
    1.3682   -0.1074    3.2203 H   0  0  0  0  0  0  0  0  0  0  0  0
  1  2  2  0  0  0  0
  2  3  1  0  0  0  0
  2  4  1  0  0  0  0
  3 28  1  0  0  0  0
  4  5  2  0  0  0  0
  4 27  1  0  0  0  0
  5  6  1  0  0  0  0
  5 29  1  0  0  0  0
  6  7  1  0  0  0  0
  6 30  1  0  0  0  0
  7  8  1  0  0  0  0
  7 27  2  0  0  0  0
  8  9  2  0  0  0  0
  8 31  1  0  0  0  0
  9 10  1  0  0  0  0
  9 11  1  0  0  0  0
 11 12  1  0  0  0  0
 11 26  2  0  0  0  0
 12 13  1  0  0  0  0
 12 25  2  0  0  0  0
 13 14  2  0  0  0  0
 13 32  1  0  0  0  0
 14 15  1  0  0  0  0
 14 33  1  0  0  0  0
 15 16  1  0  0  0  0
 15 24  2  0  0  0  0
 16 17  1  0  0  0  0
 17 18  1  0  0  0  0
 17 34  1  0  0  0  0
 17 35  1  0  0  0  0
 18 19  1  0  0  0  0
 18 23  2  0  0  0  0
 19 20  2  0  0  0  0
 19 36  1  0  0  0  0
 20 21  1  0  0  0  0
 20 37  1  0  0  0  0
 21 22  2  0  0  0  0
 21 38  1  0  0  0  0
 22 23  1  0  0  0  0
 23 39  1  0  0  0  0
 24 25  1  0  0  0  0
 24 40  1  0  0  0  0
 25 41  1  0  0  0  0
 26 27  1  0  0  0  0
 26 42  1  0  0  0  0
M  END
