
 OpenBabel03132514253D

 41 44  0  0  0  0  0  0  0  0999 V2000
    1.0675    0.0387    0.0629 N   0  0  0  0  0  0  0  0  0  0  0  0
    2.3284    0.0387    0.0629 C   0  0  0  0  0  0  0  0  0  0  0  0
    3.8484    0.0387    0.0629 C   0  0  0  0  0  0  0  0  0  0  0  0
    4.5314   -1.1568    0.0628 C   0  0  0  0  0  0  0  0  0  0  0  0
    5.9216   -1.1625    0.0739 C   0  0  0  0  0  0  0  0  0  0  0  0
    6.8696   -2.1653    0.0818 N   0  0  0  0  0  0  0  0  0  0  0  0
    8.1422   -1.5863    0.0921 C   0  0  0  0  0  0  0  0  0  0  0  0
    8.0451   -0.2890    0.0914 C   0  0  0  0  0  0  0  0  0  0  0  0
    9.2039    0.6947    0.1007 C   0  0  0  0  0  0  0  0  0  0  0  0
   10.4006    0.2669    0.1102 O   0  0  0  0  0  0  0  0  0  0  0  0
    8.9493    2.0917    0.0987 O   0  0  0  0  0  0  0  0  0  0  0  0
    6.6243    0.0553    0.0801 C   0  0  0  0  0  0  0  0  0  0  0  0
    5.9211    1.2637    0.0749 C   0  0  0  0  0  0  0  0  0  0  0  0
    4.5405    1.2500    0.0629 C   0  0  0  0  0  0  0  0  0  0  0  0
    3.7710    2.5608    0.0496 C   0  0  0  0  0  0  0  0  0  0  0  0
    2.8702    2.8680    1.1071 C   0  0  0  0  0  0  0  0  0  0  0  0
    1.9540    3.9205    0.9478 C   0  0  0  0  0  0  0  0  0  0  0  0
    2.1038    4.7722   -0.0235 C   0  0  0  0  0  0  0  0  0  0  0  0
    1.1048    5.9040   -0.2015 C   0  0  0  0  0  0  0  0  0  0  0  0
    1.0898    5.3684    1.2209 C   0  0  0  0  0  0  0  0  0  0  0  0
    0.7439    3.9913    1.2046 O   0  0  0  0  0  0  0  0  0  0  0  0
    1.0096    7.3314   -0.7441 C   0  0  0  0  0  0  0  0  0  0  0  0
    0.2107    6.2062   -1.4065 C   0  0  0  0  0  0  0  0  0  0  0  0
    3.1850    4.6480   -0.9062 C   0  0  0  0  0  0  0  0  0  0  0  0
    3.9245    3.4408   -0.9413 C   0  0  0  0  0  0  0  0  0  0  0  0
    3.9924   -2.0811    0.0543 H   0  0  0  0  0  0  0  0  0  0  0  0
    6.6737   -3.1663    0.0804 H   0  0  0  0  0  0  0  0  0  0  0  0
    9.0628   -2.1314    0.0995 H   0  0  0  0  0  0  0  0  0  0  0  0
    9.7116    2.7389    0.1049 H   0  0  0  0  0  0  0  0  0  0  0  0
    6.4499    2.1939    0.0803 H   0  0  0  0  0  0  0  0  0  0  0  0
    2.8906    2.3026    2.0153 H   0  0  0  0  0  0  0  0  0  0  0  0
    1.1324    4.0216    1.6259 H   0  0  0  0  0  0  0  0  0  0  0  0
    2.0596    5.4874    1.6571 H   0  0  0  0  0  0  0  0  0  0  0  0
    0.3701    5.9101    1.7984 H   0  0  0  0  0  0  0  0  0  0  0  0
   -0.1624    3.8801    0.7969 H   0  0  0  0  0  0  0  0  0  0  0  0
    0.7676    8.2856   -0.3248 H   0  0  0  0  0  0  0  0  0  0  0  0
    1.8438    7.7668   -1.2536 H   0  0  0  0  0  0  0  0  0  0  0  0
    0.1266    5.8222   -2.4017 H   0  0  0  0  0  0  0  0  0  0  0  0
   -0.8540    6.1740   -1.3043 H   0  0  0  0  0  0  0  0  0  0  0  0
    3.4503    5.4605   -1.5499 H   0  0  0  0  0  0  0  0  0  0  0  0
    4.5955    3.2377   -1.7496 H   0  0  0  0  0  0  0  0  0  0  0  0
  1  2  3  0  0  0  0
  2  3  1  0  0  0  0
  3  4  1  0  0  0  0
  3 14  2  0  0  0  0
  4  5  2  0  0  0  0
  4 26  1  0  0  0  0
  5  6  1  0  0  0  0
  5 12  1  0  0  0  0
  6  7  1  0  0  0  0
  6 27  1  0  0  0  0
  7  8  2  0  0  0  0
  7 28  1  0  0  0  0
  8  9  1  0  0  0  0
  8 12  1  0  0  0  0
  9 10  2  0  0  0  0
  9 11  1  0  0  0  0
 11 29  1  0  0  0  0
 12 13  2  0  0  0  0
 13 14  1  0  0  0  0
 13 30  1  0  0  0  0
 14 15  1  0  0  0  0
 15 16  1  0  0  0  0
 15 25  2  0  0  0  0
 16 17  2  0  0  0  0
 16 31  1  0  0  0  0
 17 18  1  0  0  0  0
 17 32  1  0  0  0  0
 18 19  1  0  0  0  0
 18 24  2  0  0  0  0
 19 20  1  0  0  0  0
 19 22  1  0  0  0  0
 19 23  1  0  0  0  0
 20 21  1  0  0  0  0
 20 33  1  0  0  0  0
 20 34  1  0  0  0  0
 21 35  1  0  0  0  0
 22 23  1  0  0  0  0
 22 36  1  0  0  0  0
 22 37  1  0  0  0  0
 23 38  1  0  0  0  0
 23 39  1  0  0  0  0
 24 25  1  0  0  0  0
 24 40  1  0  0  0  0
 25 41  1  0  0  0  0
M  END
