
 OpenBabel03132514253D

 44 47  0  0  0  0  0  0  0  0999 V2000
    2.4920    0.0040   -0.0140 C   0  0  0  0  0  0  0  0  0  0  0  0
    0.9910   -0.0050    0.0130 C   0  0  0  0  0  0  0  0  0  0  0  0
    0.2580   -1.1970    0.0060 C   0  0  0  0  0  0  0  0  0  0  0  0
   -1.1080   -1.2020    0.0010 C   0  0  0  0  0  0  0  0  0  0  0  0
   -1.7990    0.0100   -0.0130 C   0  0  0  0  0  0  0  0  0  0  0  0
   -3.2187    0.0136   -0.0428 O   0  0  0  0  0  0  0  0  0  0  0  0
   -3.9254    1.2452   -0.0571 C   0  0  0  0  0  0  0  0  0  0  0  0
   -5.3179    1.2488   -0.0864 N   0  0  0  0  0  0  0  0  0  0  0  0
   -6.0495    2.5237   -0.1012 C   0  0  0  0  0  0  0  0  0  0  0  0
   -5.6390    3.5414   -0.9394 C   0  0  0  0  0  0  0  0  0  0  0  0
   -6.3238    4.7442   -0.9225 C   0  0  0  0  0  0  0  0  0  0  0  0
   -5.7776    6.0637   -1.9849 Cl  0  0  0  0  0  0  0  0  0  0  0  0
   -7.4236    4.9520   -0.1018 C   0  0  0  0  0  0  0  0  0  0  0  0
   -8.1272    6.2781   -0.0843 C   0  0  0  0  0  0  0  0  0  0  0  0
   -8.7383    7.4298   -0.0692 C   0  0  0  0  0  0  0  0  0  0  0  0
   -9.4422    8.7557   -0.0524 C   0  0  0  0  0  0  0  0  0  0  0  0
  -10.8379    8.8529   -0.0785 C   0  0  0  0  0  0  0  0  0  0  0  0
  -11.4752   10.0610   -0.0927 C   0  0  0  0  0  0  0  0  0  0  0  0
  -10.7213   11.2350   -0.0970 C   0  0  0  0  0  0  0  0  0  0  0  0
   -9.3420   11.1778   -0.0631 C   0  0  0  0  0  0  0  0  0  0  0  0
   -8.7203    9.9412   -0.0511 C   0  0  0  0  0  0  0  0  0  0  0  0
   -7.8157    3.8955    0.7278 C   0  0  0  0  0  0  0  0  0  0  0  0
   -7.1554    2.6997    0.7311 C   0  0  0  0  0  0  0  0  0  0  0  0
   -3.2260    2.4496   -0.0419 N   0  0  0  0  0  0  0  0  0  0  0  0
   -1.1090    1.2060    0.0020 C   0  0  0  0  0  0  0  0  0  0  0  0
    0.2750    1.1840    0.0050 C   0  0  0  0  0  0  0  0  0  0  0  0
    1.0333    2.5013   -0.0006 C   0  0  0  0  0  0  0  0  0  0  0  0
    0.3965    3.6011   -0.0080 O   0  0  0  0  0  0  0  0  0  0  0  0
    2.4533    2.5031    0.0023 O   0  0  0  0  0  0  0  0  0  0  0  0
    2.8673   -0.5130    0.8443 H   0  0  0  0  0  0  0  0  0  0  0  0
    2.8357   -0.4833   -0.9024 H   0  0  0  0  0  0  0  0  0  0  0  0
    2.8429    1.0148   -0.0032 H   0  0  0  0  0  0  0  0  0  0  0  0
    0.7818   -2.1300    0.0045 H   0  0  0  0  0  0  0  0  0  0  0  0
   -1.6438   -2.1281    0.0078 H   0  0  0  0  0  0  0  0  0  0  0  0
   -4.8032    3.4021   -1.5929 H   0  0  0  0  0  0  0  0  0  0  0  0
  -11.4219    7.9563   -0.0875 H   0  0  0  0  0  0  0  0  0  0  0  0
  -12.5442   10.1067   -0.1005 H   0  0  0  0  0  0  0  0  0  0  0  0
  -11.2142   12.1842   -0.1266 H   0  0  0  0  0  0  0  0  0  0  0  0
   -8.7620   12.0768   -0.0465 H   0  0  0  0  0  0  0  0  0  0  0  0
   -7.6512    9.8979   -0.0405 H   0  0  0  0  0  0  0  0  0  0  0  0
   -8.6556    4.0279    1.3773 H   0  0  0  0  0  0  0  0  0  0  0  0
   -2.2063    2.4470   -0.0205 H   0  0  0  0  0  0  0  0  0  0  0  0
   -1.6368    2.1367    0.0112 H   0  0  0  0  0  0  0  0  0  0  0  0
    2.9523    3.3697   -0.0014 H   0  0  0  0  0  0  0  0  0  0  0  0
  1  2  1  0  0  0  0
  1 30  1  0  0  0  0
  1 31  1  0  0  0  0
  1 32  1  0  0  0  0
  2  3  1  0  0  0  0
  2 26  2  0  0  0  0
  3  4  2  0  0  0  0
  3 33  1  0  0  0  0
  4  5  1  0  0  0  0
  4 34  1  0  0  0  0
  5  6  1  0  0  0  0
  5 25  2  0  0  0  0
  6  7  1  0  0  0  0
  7  8  2  0  0  0  0
  7 24  1  0  0  0  0
  8  9  1  0  0  0  0
  9 10  1  0  0  0  0
  9 23  2  0  0  0  0
 10 11  2  0  0  0  0
 10 35  1  0  0  0  0
 11 12  1  0  0  0  0
 11 13  1  0  0  0  0
 13 14  1  0  0  0  0
 13 22  2  0  0  0  0
 14 15  3  0  0  0  0
 15 16  1  0  0  0  0
 16 17  1  0  0  0  0
 16 21  2  0  0  0  0
 17 18  2  0  0  0  0
 17 36  1  0  0  0  0
 18 19  1  0  0  0  0
 18 37  1  0  0  0  0
 19 20  2  0  0  0  0
 19 38  1  0  0  0  0
 20 21  1  0  0  0  0
 20 39  1  0  0  0  0
 21 40  1  0  0  0  0
 22 23  1  0  0  0  0
 22 41  1  0  0  0  0
 23 24  1  0  0  0  0
 24 42  1  0  0  0  0
 25 26  1  0  0  0  0
 25 43  1  0  0  0  0
 26 27  1  0  0  0  0
 27 28  2  0  0  0  0
 27 29  1  0  0  0  0
 29 44  1  0  0  0  0
M  END
