
 OpenBabel03132514253D

 45 48  0  0  0  0  0  0  0  0999 V2000
    1.0581   -0.0575    0.0576 O   0  0  0  0  0  0  0  0  0  0  0  0
    2.3290   -0.0575    0.0576 C   0  0  0  0  0  0  0  0  0  0  0  0
    3.0390   -1.0102   -0.7201 O   0  0  0  0  0  0  0  0  0  0  0  0
    3.0890    0.9623    0.8900 C   0  0  0  0  0  0  0  0  0  0  0  0
    4.0688    1.7777    0.3726 C   0  0  0  0  0  0  0  0  0  0  0  0
    4.4522    2.7120    1.2977 N   0  0  0  0  0  0  0  0  0  0  0  0
    3.7566    2.4891    2.4637 C   0  0  0  0  0  0  0  0  0  0  0  0
    3.8694    3.1379    3.6980 C   0  0  0  0  0  0  0  0  0  0  0  0
    3.0801    2.6424    4.7167 C   0  0  0  0  0  0  0  0  0  0  0  0
    3.1858    3.3787    6.2958 Cl  0  0  0  0  0  0  0  0  0  0  0  0
    2.2097    1.5503    4.5543 C   0  0  0  0  0  0  0  0  0  0  0  0
    1.3825    1.0570    5.7303 C   0  0  0  0  0  0  0  0  0  0  0  0
    1.4719   -0.2620    6.1436 C   0  0  0  0  0  0  0  0  0  0  0  0
    0.4048   -0.6755    6.9758 C   0  0  0  0  0  0  0  0  0  0  0  0
   -0.4081    0.1458    7.6150 C   0  0  0  0  0  0  0  0  0  0  0  0
   -1.2453   -0.3017    8.6710 O   0  0  0  0  0  0  0  0  0  0  0  0
   -2.1051    0.6146    9.3324 C   0  0  0  0  0  0  0  0  0  0  0  0
   -1.2765    1.7211    9.9645 C   0  0  0  0  0  0  0  0  0  0  0  0
   -1.4212    1.7278   11.4611 C   0  0  0  0  0  0  0  0  0  0  0  0
   -0.9103    3.1463   11.8558 C   0  0  0  0  0  0  0  0  0  0  0  0
   -1.3537    4.0203   10.6797 C   0  0  0  0  0  0  0  0  0  0  0  0
   -1.7917    3.0544    9.6023 N   0  0  0  0  0  0  0  0  0  0  0  0
   -0.4003    1.4502    7.2053 C   0  0  0  0  0  0  0  0  0  0  0  0
    0.5277    1.9002    6.2974 C   0  0  0  0  0  0  0  0  0  0  0  0
    2.1053    0.9233    3.3229 C   0  0  0  0  0  0  0  0  0  0  0  0
    2.8795    1.3948    2.2476 C   0  0  0  0  0  0  0  0  0  0  0  0
    4.0390   -1.0102   -0.7201 H   0  0  0  0  0  0  0  0  0  0  0  0
    4.4744    1.6938   -0.6140 H   0  0  0  0  0  0  0  0  0  0  0  0
    5.1394    3.4506    1.1472 H   0  0  0  0  0  0  0  0  0  0  0  0
    4.5280    3.9685    3.8439 H   0  0  0  0  0  0  0  0  0  0  0  0
    2.2749   -0.9094    5.8594 H   0  0  0  0  0  0  0  0  0  0  0  0
    0.2456   -1.7268    7.0955 H   0  0  0  0  0  0  0  0  0  0  0  0
   -2.7863    1.0390    8.6247 H   0  0  0  0  0  0  0  0  0  0  0  0
   -2.6552    0.1018   10.0935 H   0  0  0  0  0  0  0  0  0  0  0  0
   -0.2773    1.5388    9.6277 H   0  0  0  0  0  0  0  0  0  0  0  0
   -2.4209    1.5332   11.7891 H   0  0  0  0  0  0  0  0  0  0  0  0
   -0.8205    0.9641   11.9091 H   0  0  0  0  0  0  0  0  0  0  0  0
   -1.2944    3.4831   12.7960 H   0  0  0  0  0  0  0  0  0  0  0  0
    0.1547    3.1549   11.9597 H   0  0  0  0  0  0  0  0  0  0  0  0
   -2.1409    4.6899   10.9570 H   0  0  0  0  0  0  0  0  0  0  0  0
   -0.5399    4.6228   10.3337 H   0  0  0  0  0  0  0  0  0  0  0  0
   -2.8100    3.0313    9.5486 H   0  0  0  0  0  0  0  0  0  0  0  0
   -1.1274    2.1304    7.5972 H   0  0  0  0  0  0  0  0  0  0  0  0
    0.5620    2.9395    6.0452 H   0  0  0  0  0  0  0  0  0  0  0  0
    1.4448    0.0917    3.1920 H   0  0  0  0  0  0  0  0  0  0  0  0
  1  2  2  0  0  0  0
  2  3  1  0  0  0  0
  2  4  1  0  0  0  0
  3 27  1  0  0  0  0
  4  5  2  0  0  0  0
  4 26  1  0  0  0  0
  5  6  1  0  0  0  0
  5 28  1  0  0  0  0
  6  7  1  0  0  0  0
  6 29  1  0  0  0  0
  7  8  1  0  0  0  0
  7 26  2  0  0  0  0
  8  9  2  0  0  0  0
  8 30  1  0  0  0  0
  9 10  1  0  0  0  0
  9 11  1  0  0  0  0
 11 12  1  0  0  0  0
 11 25  2  0  0  0  0
 12 13  1  0  0  0  0
 12 24  2  0  0  0  0
 13 14  2  0  0  0  0
 13 31  1  0  0  0  0
 14 15  1  0  0  0  0
 14 32  1  0  0  0  0
 15 16  1  0  0  0  0
 15 23  2  0  0  0  0
 16 17  1  0  0  0  0
 17 18  1  0  0  0  0
 17 33  1  0  0  0  0
 17 34  1  0  0  0  0
 18 19  1  0  0  0  0
 18 22  1  0  0  0  0
 18 35  1  0  0  0  0
 19 20  1  0  0  0  0
 19 36  1  0  0  0  0
 19 37  1  0  0  0  0
 20 21  1  0  0  0  0
 20 38  1  0  0  0  0
 20 39  1  0  0  0  0
 21 22  1  0  0  0  0
 21 40  1  0  0  0  0
 21 41  1  0  0  0  0
 22 42  1  0  0  0  0
 23 24  1  0  0  0  0
 23 43  1  0  0  0  0
 24 44  1  0  0  0  0
 25 26  1  0  0  0  0
 25 45  1  0  0  0  0
M  END
