
 OpenBabel03132514253D

 43 46  0  0  0  0  0  0  0  0999 V2000
    1.0237    0.0952    0.0196 O   0  0  0  0  0  0  0  0  0  0  0  0
    2.2946    0.0952    0.0196 C   0  0  0  0  0  0  0  0  0  0  0  0
    3.0046   -0.4508   -1.0823 O   0  0  0  0  0  0  0  0  0  0  0  0
    3.0546    0.6796    1.1991 C   0  0  0  0  0  0  0  0  0  0  0  0
    3.2910    2.1940    0.9397 C   0  0  0  0  0  0  0  0  0  0  0  0
    3.9655    2.8789    2.1439 C   0  0  0  0  0  0  0  0  0  0  0  0
    4.8685    1.9590    2.8784 C   0  0  0  0  0  0  0  0  0  0  0  0
    5.6090    2.3397    3.9818 N   0  0  0  0  0  0  0  0  0  0  0  0
    6.2707    1.2365    4.4780 C   0  0  0  0  0  0  0  0  0  0  0  0
    7.1668    1.1348    5.5419 C   0  0  0  0  0  0  0  0  0  0  0  0
    7.7054   -0.1163    5.7936 C   0  0  0  0  0  0  0  0  0  0  0  0
    7.3669   -1.2309    5.0198 C   0  0  0  0  0  0  0  0  0  0  0  0
    7.9264   -2.4977    5.3335 O   0  0  0  0  0  0  0  0  0  0  0  0
    7.5891   -3.6356    4.5539 C   0  0  0  0  0  0  0  0  0  0  0  0
    6.0887   -3.8698    4.6221 C   0  0  0  0  0  0  0  0  0  0  0  0
    5.2326   -2.7813    4.6496 C   0  0  0  0  0  0  0  0  0  0  0  0
    3.9023   -3.1071    5.0050 C   0  0  0  0  0  0  0  0  0  0  0  0
    3.3938   -4.3253    4.9668 C   0  0  0  0  0  0  0  0  0  0  0  0
    4.2883   -5.3549    4.8705 C   0  0  0  0  0  0  0  0  0  0  0  0
    5.6235   -5.1131    4.6541 C   0  0  0  0  0  0  0  0  0  0  0  0
    6.4930   -1.1155    3.9513 C   0  0  0  0  0  0  0  0  0  0  0  0
    5.9367    0.1323    3.6575 C   0  0  0  0  0  0  0  0  0  0  0  0
    5.0475    0.6279    2.6408 C   0  0  0  0  0  0  0  0  0  0  0  0
    4.3861   -0.0926    1.4936 C   0  0  0  0  0  0  0  0  0  0  0  0
    4.0046   -0.4508   -1.0823 H   0  0  0  0  0  0  0  0  0  0  0  0
    2.4657    0.5658    2.0852 H   0  0  0  0  0  0  0  0  0  0  0  0
    3.9395    2.2907    0.0941 H   0  0  0  0  0  0  0  0  0  0  0  0
    2.3485    2.6657    0.7553 H   0  0  0  0  0  0  0  0  0  0  0  0
    4.5550    3.6908    1.7723 H   0  0  0  0  0  0  0  0  0  0  0  0
    3.2059    3.2239    2.8139 H   0  0  0  0  0  0  0  0  0  0  0  0
    5.6580    3.2832    4.3664 H   0  0  0  0  0  0  0  0  0  0  0  0
    7.4266    1.9852    6.1371 H   0  0  0  0  0  0  0  0  0  0  0  0
    8.3982   -0.2330    6.6007 H   0  0  0  0  0  0  0  0  0  0  0  0
    7.8783   -3.4699    3.5372 H   0  0  0  0  0  0  0  0  0  0  0  0
    8.1017   -4.4940    4.9352 H   0  0  0  0  0  0  0  0  0  0  0  0
    5.5486   -1.7845    4.4227 H   0  0  0  0  0  0  0  0  0  0  0  0
    3.2640   -2.3110    5.3270 H   0  0  0  0  0  0  0  0  0  0  0  0
    2.3386   -4.4973    5.0089 H   0  0  0  0  0  0  0  0  0  0  0  0
    3.9436   -6.3634    4.9651 H   0  0  0  0  0  0  0  0  0  0  0  0
    6.2943   -5.9341    4.5099 H   0  0  0  0  0  0  0  0  0  0  0  0
    6.2468   -1.9713    3.3581 H   0  0  0  0  0  0  0  0  0  0  0  0
    4.1963   -1.1175    1.7353 H   0  0  0  0  0  0  0  0  0  0  0  0
    5.0207   -0.0789    0.6322 H   0  0  0  0  0  0  0  0  0  0  0  0
  1  2  2  0  0  0  0
  2  3  1  0  0  0  0
  2  4  1  0  0  0  0
  3 25  1  0  0  0  0
  4  5  1  0  0  0  0
  4 24  1  0  0  0  0
  4 26  1  0  0  0  0
  5  6  1  0  0  0  0
  5 27  1  0  0  0  0
  5 28  1  0  0  0  0
  6  7  1  0  0  0  0
  6 29  1  0  0  0  0
  6 30  1  0  0  0  0
  7  8  1  0  0  0  0
  7 23  2  0  0  0  0
  8  9  1  0  0  0  0
  8 31  1  0  0  0  0
  9 10  1  0  0  0  0
  9 22  2  0  0  0  0
 10 11  2  0  0  0  0
 10 32  1  0  0  0  0
 11 12  1  0  0  0  0
 11 33  1  0  0  0  0
 12 13  1  0  0  0  0
 12 21  2  0  0  0  0
 13 14  1  0  0  0  0
 14 15  1  0  0  0  0
 14 34  1  0  0  0  0
 14 35  1  0  0  0  0
 15 16  1  0  0  0  0
 15 20  2  0  0  0  0
 16 17  2  0  0  0  0
 16 36  1  0  0  0  0
 17 18  1  0  0  0  0
 17 37  1  0  0  0  0
 18 19  2  0  0  0  0
 18 38  1  0  0  0  0
 19 20  1  0  0  0  0
 19 39  1  0  0  0  0
 20 40  1  0  0  0  0
 21 22  1  0  0  0  0
 21 41  1  0  0  0  0
 22 23  1  0  0  0  0
 23 24  1  0  0  0  0
 24 42  1  0  0  0  0
 24 43  1  0  0  0  0
M  END
