
 OpenBabel03132512083D

 39 42  0  0  0  0  0  0  0  0999 V2000
    1.0482    0.0821    0.0307 O   0  0  0  0  0  0  0  0  0  0  0  0
    2.3191    0.0821    0.0307 C   0  0  0  0  0  0  0  0  0  0  0  0
    3.0291   -0.4236    1.1517 O   0  0  0  0  0  0  0  0  0  0  0  0
    3.0791    0.6234   -1.1692 C   0  0  0  0  0  0  0  0  0  0  0  0
    4.1659    0.0964   -1.6526 N   0  0  0  0  0  0  0  0  0  0  0  0
    4.6706    0.8930   -2.6847 N   0  0  0  0  0  0  0  0  0  0  0  0
    3.8439    1.9851   -2.8526 C   0  0  0  0  0  0  0  0  0  0  0  0
    3.8599    3.0772   -3.7127 C   0  0  0  0  0  0  0  0  0  0  0  0
    2.8644    4.0254   -3.6392 C   0  0  0  0  0  0  0  0  0  0  0  0
    2.8834    5.4137   -4.7530 Cl  0  0  0  0  0  0  0  0  0  0  0  0
    1.8410    3.9067   -2.6986 C   0  0  0  0  0  0  0  0  0  0  0  0
    0.7569    4.9693   -2.6221 C   0  0  0  0  0  0  0  0  0  0  0  0
   -0.0705    5.2337   -3.7489 C   0  0  0  0  0  0  0  0  0  0  0  0
   -0.8532    6.3996   -3.7706 C   0  0  0  0  0  0  0  0  0  0  0  0
   -1.0340    7.0825   -2.6785 C   0  0  0  0  0  0  0  0  0  0  0  0
   -1.8718    8.3504   -2.7060 C   0  0  0  0  0  0  0  0  0  0  0  0
   -0.6636    8.9266   -2.2603 O   0  0  0  0  0  0  0  0  0  0  0  0
   -2.9404    8.3442   -1.5987 C   0  0  0  0  0  0  0  0  0  0  0  0
   -3.3836    9.7529   -2.0299 C   0  0  0  0  0  0  0  0  0  0  0  0
   -2.6910    9.5113   -3.3767 C   0  0  0  0  0  0  0  0  0  0  0  0
   -0.4574    6.6507   -1.4766 C   0  0  0  0  0  0  0  0  0  0  0  0
    0.5632    5.6693   -1.5030 C   0  0  0  0  0  0  0  0  0  0  0  0
    1.8083    2.8283   -1.8369 C   0  0  0  0  0  0  0  0  0  0  0  0
    2.8116    1.8572   -1.9066 C   0  0  0  0  0  0  0  0  0  0  0  0
    4.0291   -0.4236    1.1517 H   0  0  0  0  0  0  0  0  0  0  0  0
    5.5131    0.6986   -3.2258 H   0  0  0  0  0  0  0  0  0  0  0  0
    4.6456    3.1807   -4.4316 H   0  0  0  0  0  0  0  0  0  0  0  0
   -0.0963    4.5506   -4.5721 H   0  0  0  0  0  0  0  0  0  0  0  0
   -1.3010    6.7263   -4.6859 H   0  0  0  0  0  0  0  0  0  0  0  0
   -0.7911    9.9100   -2.1310 H   0  0  0  0  0  0  0  0  0  0  0  0
   -3.6507    7.5467   -1.5325 H   0  0  0  0  0  0  0  0  0  0  0  0
   -2.5428    8.2946   -0.6066 H   0  0  0  0  0  0  0  0  0  0  0  0
   -3.1566   10.6128   -1.4351 H   0  0  0  0  0  0  0  0  0  0  0  0
   -4.4436    9.8835   -2.0941 H   0  0  0  0  0  0  0  0  0  0  0  0
   -2.1988   10.3070   -3.8958 H   0  0  0  0  0  0  0  0  0  0  0  0
   -3.3470    9.1938   -4.1602 H   0  0  0  0  0  0  0  0  0  0  0  0
   -0.7863    7.0601   -0.5444 H   0  0  0  0  0  0  0  0  0  0  0  0
    1.1694    5.4921   -0.6392 H   0  0  0  0  0  0  0  0  0  0  0  0
    1.0194    2.7364   -1.1198 H   0  0  0  0  0  0  0  0  0  0  0  0
  1  2  2  0  0  0  0
  2  3  1  0  0  0  0
  2  4  1  0  0  0  0
  3 25  1  0  0  0  0
  4  5  2  0  0  0  0
  4 24  1  0  0  0  0
  5  6  1  0  0  0  0
  6  7  1  0  0  0  0
  6 26  1  0  0  0  0
  7  8  1  0  0  0  0
  7 24  2  0  0  0  0
  8  9  2  0  0  0  0
  8 27  1  0  0  0  0
  9 10  1  0  0  0  0
  9 11  1  0  0  0  0
 11 12  1  0  0  0  0
 11 23  2  0  0  0  0
 12 13  1  0  0  0  0
 12 22  2  0  0  0  0
 13 14  2  0  0  0  0
 13 28  1  0  0  0  0
 14 15  1  0  0  0  0
 14 29  1  0  0  0  0
 15 16  1  0  0  0  0
 15 21  2  0  0  0  0
 16 17  1  0  0  0  0
 16 18  1  0  0  0  0
 16 20  1  0  0  0  0
 17 30  1  0  0  0  0
 18 19  1  0  0  0  0
 18 31  1  0  0  0  0
 18 32  1  0  0  0  0
 19 20  1  0  0  0  0
 19 33  1  0  0  0  0
 19 34  1  0  0  0  0
 20 35  1  0  0  0  0
 20 36  1  0  0  0  0
 21 22  1  0  0  0  0
 21 37  1  0  0  0  0
 22 38  1  0  0  0  0
 23 24  1  0  0  0  0
 23 39  1  0  0  0  0
M  END
