
 OpenBabel03132512093D

 52 55  0  0  0  0  0  0  0  0999 V2000
    1.0485    0.0267   -0.0833 C   0  0  0  0  0  0  0  0  0  0  0  0
    0.5418    1.2027   -0.9022 C   0  0  0  0  0  0  0  0  0  0  0  0
    1.0485    1.0815   -2.3302 C   0  0  0  0  0  0  0  0  0  0  0  0
   -0.9782    1.2027   -0.9022 C   0  0  0  0  0  0  0  0  0  0  0  0
    1.0485    2.5000   -0.2933 C   0  0  0  0  0  0  0  0  0  0  0  0
    0.5585    2.6173    1.0877 N   0  0  0  0  0  0  0  0  0  0  0  0
    1.5138    2.7118    2.2010 C   0  0  0  0  0  0  0  0  0  0  0  0
    1.0901    2.8132    3.3949 O   0  0  0  0  0  0  0  0  0  0  0  0
    3.0082    2.6883    1.9242 C   0  0  0  0  0  0  0  0  0  0  0  0
    3.9571    1.9672    2.6003 C   0  0  0  0  0  0  0  0  0  0  0  0
    5.1834    2.2274    2.0712 N   0  0  0  0  0  0  0  0  0  0  0  0
    5.0862    3.1109    1.0171 C   0  0  0  0  0  0  0  0  0  0  0  0
    5.9726    3.6572    0.1866 N   0  0  0  0  0  0  0  0  0  0  0  0
    5.5825    4.4896   -0.7679 C   0  0  0  0  0  0  0  0  0  0  0  0
    4.2257    4.8288   -0.9110 C   0  0  0  0  0  0  0  0  0  0  0  0
    3.7791    5.8029   -1.9890 C   0  0  0  0  0  0  0  0  0  0  0  0
    4.8140    6.6243   -2.7605 C   0  0  0  0  0  0  0  0  0  0  0  0
    4.0191    5.5289   -3.4757 C   0  0  0  0  0  0  0  0  0  0  0  0
    3.3396    4.2786   -0.0822 N   0  0  0  0  0  0  0  0  0  0  0  0
    3.7246    3.4374    0.8744 C   0  0  0  0  0  0  0  0  0  0  0  0
    2.5685    2.5000   -0.2933 C   0  0  0  0  0  0  0  0  0  0  0  0
    3.2039    3.4032   -0.9223 O   0  0  0  0  0  0  0  0  0  0  0  0
    3.3035    1.4553    0.4342 N   0  0  0  0  0  0  0  0  0  0  0  0
    4.4626    1.3237    1.4373 C   0  0  0  0  0  0  0  0  0  0  0  0
    4.6315   -0.1185    0.9329 C   0  0  0  0  0  0  0  0  0  0  0  0
    5.1917   -1.2187    1.8195 C   0  0  0  0  0  0  0  0  0  0  0  0
    5.6565   -2.1315    2.5550 N   0  0  0  0  0  0  0  0  0  0  0  0
    3.1471   -0.0732    0.5345 C   0  0  0  0  0  0  0  0  0  0  0  0
    0.6918   -0.8865   -0.5119 H   0  0  0  0  0  0  0  0  0  0  0  0
    0.6918    0.1121    0.9219 H   0  0  0  0  0  0  0  0  0  0  0  0
    2.1185    0.0267   -0.0833 H   0  0  0  0  0  0  0  0  0  0  0  0
    0.6918    0.1683   -2.7588 H   0  0  0  0  0  0  0  0  0  0  0  0
    0.6918    1.9093   -2.9067 H   0  0  0  0  0  0  0  0  0  0  0  0
    2.1185    1.0815   -2.3302 H   0  0  0  0  0  0  0  0  0  0  0  0
   -1.3348    1.2881    0.1029 H   0  0  0  0  0  0  0  0  0  0  0  0
   -1.3348    2.0306   -1.4788 H   0  0  0  0  0  0  0  0  0  0  0  0
   -1.3348    0.2895   -1.3309 H   0  0  0  0  0  0  0  0  0  0  0  0
    0.6918    3.3278   -0.8698 H   0  0  0  0  0  0  0  0  0  0  0  0
   -0.4443    2.6330    1.2734 H   0  0  0  0  0  0  0  0  0  0  0  0
    3.7639    1.3032    3.4168 H   0  0  0  0  0  0  0  0  0  0  0  0
    6.0569    1.8233    2.4089 H   0  0  0  0  0  0  0  0  0  0  0  0
    6.3067    4.9074   -1.4356 H   0  0  0  0  0  0  0  0  0  0  0  0
    2.9127    6.0204   -1.4000 H   0  0  0  0  0  0  0  0  0  0  0  0
    4.9809    7.6683   -2.9256 H   0  0  0  0  0  0  0  0  0  0  0  0
    5.8575    6.4881   -2.5667 H   0  0  0  0  0  0  0  0  0  0  0  0
    4.2725    4.6656   -4.0548 H   0  0  0  0  0  0  0  0  0  0  0  0
    3.2729    5.7928   -4.1957 H   0  0  0  0  0  0  0  0  0  0  0  0
    5.2777    2.0167    1.4548 H   0  0  0  0  0  0  0  0  0  0  0  0
    4.1771    1.4082    2.4651 H   0  0  0  0  0  0  0  0  0  0  0  0
    5.3113   -0.2293    0.1141 H   0  0  0  0  0  0  0  0  0  0  0  0
    2.3854   -0.5270    1.1335 H   0  0  0  0  0  0  0  0  0  0  0  0
    2.9160   -0.5615   -0.3891 H   0  0  0  0  0  0  0  0  0  0  0  0
  1  2  1  0  0  0  0
  1 29  1  0  0  0  0
  1 30  1  0  0  0  0
  1 31  1  0  0  0  0
  2  3  1  0  0  0  0
  2  4  1  0  0  0  0
  2  5  1  0  0  0  0
  3 32  1  0  0  0  0
  3 33  1  0  0  0  0
  3 34  1  0  0  0  0
  4 35  1  0  0  0  0
  4 36  1  0  0  0  0
  4 37  1  0  0  0  0
  5  6  1  0  0  0  0
  5 21  1  0  0  0  0
  5 38  1  0  0  0  0
  6  7  1  0  0  0  0
  6 39  1  0  0  0  0
  7  8  2  0  0  0  0
  7  9  1  0  0  0  0
  9 10  2  0  0  0  0
  9 20  1  0  0  0  0
 10 11  1  0  0  0  0
 10 40  1  0  0  0  0
 11 12  1  0  0  0  0
 11 41  1  0  0  0  0
 12 13  1  0  0  0  0
 12 20  2  0  0  0  0
 13 14  2  0  0  0  0
 14 15  1  0  0  0  0
 14 42  1  0  0  0  0
 15 16  1  0  0  0  0
 15 19  2  0  0  0  0
 16 17  1  0  0  0  0
 16 18  1  0  0  0  0
 16 43  1  0  0  0  0
 17 18  1  0  0  0  0
 17 44  1  0  0  0  0
 17 45  1  0  0  0  0
 18 46  1  0  0  0  0
 18 47  1  0  0  0  0
 19 20  1  0  0  0  0
 21 22  2  0  0  0  0
 21 23  1  0  0  0  0
 23 24  1  0  0  0  0
 23 28  1  0  0  0  0
 24 25  1  0  0  0  0
 24 48  1  0  0  0  0
 24 49  1  0  0  0  0
 25 26  1  0  0  0  0
 25 28  1  0  0  0  0
 25 50  1  0  0  0  0
 26 27  3  0  0  0  0
 28 51  1  0  0  0  0
 28 52  1  0  0  0  0
M  END
