
 OpenBabel03132512093D

 56 58  0  0  0  0  0  0  0  0999 V2000
    0.9474    0.0391   -0.0755 C   0  0  0  0  0  0  0  0  0  0  0  0
    0.4741    0.3715   -1.3724 O   0  0  0  0  0  0  0  0  0  0  0  0
    0.8171    1.6202   -1.9549 C   0  0  0  0  0  0  0  0  0  0  0  0
   -0.1680    2.2422   -2.6704 C   0  0  0  0  0  0  0  0  0  0  0  0
    0.1078    3.4404   -3.3664 C   0  0  0  0  0  0  0  0  0  0  0  0
   -0.8942    4.0741   -4.0562 N   0  0  0  0  0  0  0  0  0  0  0  0
   -0.5679    5.1737   -4.6777 C   0  0  0  0  0  0  0  0  0  0  0  0
    0.6710    5.7533   -4.7269 N   0  0  0  0  0  0  0  0  0  0  0  0
    1.6417    5.1507   -4.0836 C   0  0  0  0  0  0  0  0  0  0  0  0
    2.9941    5.7250   -4.1309 N   0  0  0  0  0  0  0  0  0  0  0  0
    3.2428    6.9579   -4.8918 C   0  0  0  0  0  0  0  0  0  0  0  0
    4.2537    6.9560   -5.8308 C   0  0  0  0  0  0  0  0  0  0  0  0
    4.6277    8.1222   -6.4858 C   0  0  0  0  0  0  0  0  0  0  0  0
    3.9643    9.3101   -6.1829 C   0  0  0  0  0  0  0  0  0  0  0  0
    2.9511    9.3101   -5.2427 C   0  0  0  0  0  0  0  0  0  0  0  0
    2.0926   10.7705   -4.8898 Cl  0  0  0  0  0  0  0  0  0  0  0  0
    2.6062    8.1387   -4.6075 C   0  0  0  0  0  0  0  0  0  0  0  0
    1.6017    8.1455   -3.7076 F   0  0  0  0  0  0  0  0  0  0  0  0
    1.4233    3.9558   -3.3405 C   0  0  0  0  0  0  0  0  0  0  0  0
    2.4282    3.2866   -2.6055 C   0  0  0  0  0  0  0  0  0  0  0  0
    2.1235    2.1445   -1.9215 C   0  0  0  0  0  0  0  0  0  0  0  0
    3.2017    1.4347   -1.1189 C   0  0  0  0  0  0  0  0  0  0  0  0
    4.2959    1.0341   -2.0151 N   0  0  0  0  0  0  0  0  0  0  0  0
    5.3386    0.3477   -1.2389 C   0  0  0  0  0  0  0  0  0  0  0  0
    3.7761    0.1263   -3.0478 C   0  0  0  0  0  0  0  0  0  0  0  0
    3.1853   -1.1082   -2.3863 C   0  0  0  0  0  0  0  0  0  0  0  0
    2.6979    0.8361   -3.8504 C   0  0  0  0  0  0  0  0  0  0  0  0
    2.8402    0.9965   -5.1031 O   0  0  0  0  0  0  0  0  0  0  0  0
    1.4907    1.3370   -3.1776 N   0  0  0  0  0  0  0  0  0  0  0  0
    1.3262    1.1515   -1.7287 C   0  0  0  0  0  0  0  0  0  0  0  0
    0.4481    2.0235   -3.9538 C   0  0  0  0  0  0  0  0  0  0  0  0
    0.5907   -0.9325    0.1961 H   0  0  0  0  0  0  0  0  0  0  0  0
    0.5907    0.7601    0.6300 H   0  0  0  0  0  0  0  0  0  0  0  0
    2.0174    0.0391   -0.0755 H   0  0  0  0  0  0  0  0  0  0  0  0
   -1.1507    1.8202   -2.7034 H   0  0  0  0  0  0  0  0  0  0  0  0
   -1.3520    5.6757   -5.2051 H   0  0  0  0  0  0  0  0  0  0  0  0
    3.7598    5.2681   -3.6357 H   0  0  0  0  0  0  0  0  0  0  0  0
    4.7583    6.0402   -6.0583 H   0  0  0  0  0  0  0  0  0  0  0  0
    5.4134    8.1091   -7.2120 H   0  0  0  0  0  0  0  0  0  0  0  0
    4.2384   10.2189   -6.6765 H   0  0  0  0  0  0  0  0  0  0  0  0
    3.4254    3.6740   -2.5851 H   0  0  0  0  0  0  0  0  0  0  0  0
    3.5800    2.0955   -0.3673 H   0  0  0  0  0  0  0  0  0  0  0  0
    2.7858    0.5657   -0.6533 H   0  0  0  0  0  0  0  0  0  0  0  0
    4.9227   -0.5213   -0.7733 H   0  0  0  0  0  0  0  0  0  0  0  0
    6.1351    0.0561   -1.8912 H   0  0  0  0  0  0  0  0  0  0  0  0
    5.7169    1.0085   -0.4872 H   0  0  0  0  0  0  0  0  0  0  0  0
    4.5726   -0.1653   -3.7001 H   0  0  0  0  0  0  0  0  0  0  0  0
    2.3888   -0.8166   -1.7340 H   0  0  0  0  0  0  0  0  0  0  0  0
    2.8069   -1.7690   -3.1380 H   0  0  0  0  0  0  0  0  0  0  0  0
    3.9442   -1.6079   -1.8214 H   0  0  0  0  0  0  0  0  0  0  0  0
    1.2377    2.1067   -1.2546 H   0  0  0  0  0  0  0  0  0  0  0  0
    0.4434    0.5768   -1.5406 H   0  0  0  0  0  0  0  0  0  0  0  0
    2.1777    0.6360   -1.3361 H   0  0  0  0  0  0  0  0  0  0  0  0
    0.8640    2.8925   -4.4194 H   0  0  0  0  0  0  0  0  0  0  0  0
    0.0697    1.3627   -4.7055 H   0  0  0  0  0  0  0  0  0  0  0  0
   -0.3484    2.3151   -3.3015 H   0  0  0  0  0  0  0  0  0  0  0  0
  1  2  1  0  0  0  0
  1 32  1  0  0  0  0
  1 33  1  0  0  0  0
  1 34  1  0  0  0  0
  2  3  1  0  0  0  0
  3  4  1  0  0  0  0
  3 21  2  0  0  0  0
  4  5  2  0  0  0  0
  4 35  1  0  0  0  0
  5  6  1  0  0  0  0
  5 19  1  0  0  0  0
  6  7  2  0  0  0  0
  7  8  1  0  0  0  0
  7 36  1  0  0  0  0
  8  9  2  0  0  0  0
  9 10  1  0  0  0  0
  9 19  1  0  0  0  0
 10 11  1  0  0  0  0
 10 37  1  0  0  0  0
 11 12  1  0  0  0  0
 11 17  2  0  0  0  0
 12 13  2  0  0  0  0
 12 38  1  0  0  0  0
 13 14  1  0  0  0  0
 13 39  1  0  0  0  0
 14 15  2  0  0  0  0
 14 40  1  0  0  0  0
 15 16  1  0  0  0  0
 15 17  1  0  0  0  0
 17 18  1  0  0  0  0
 19 20  2  0  0  0  0
 20 21  1  0  0  0  0
 20 41  1  0  0  0  0
 21 22  1  0  0  0  0
 22 23  1  0  0  0  0
 22 42  1  0  0  0  0
 22 43  1  0  0  0  0
 23 24  1  0  0  0  0
 23 25  1  0  0  0  0
 24 44  1  0  0  0  0
 24 45  1  0  0  0  0
 24 46  1  0  0  0  0
 25 26  1  0  0  0  0
 25 27  1  0  0  0  0
 25 47  1  0  0  0  0
 26 48  1  0  0  0  0
 26 49  1  0  0  0  0
 26 50  1  0  0  0  0
 27 28  2  0  0  0  0
 27 29  1  0  0  0  0
 29 30  1  0  0  0  0
 29 31  1  0  0  0  0
 30 51  1  0  0  0  0
 30 52  1  0  0  0  0
 30 53  1  0  0  0  0
 31 54  1  0  0  0  0
 31 55  1  0  0  0  0
 31 56  1  0  0  0  0
M  END
