
 OpenBabel03132514253D

 74 80  0  0  0  0  0  0  0  0999 V2000
    0.9371   -0.0553    0.0546 O   0  0  0  0  0  0  0  0  0  0  0  0
    2.2080   -0.0553    0.0546 C   0  0  0  0  0  0  0  0  0  0  0  0
    2.9180    0.0933   -1.1661 O   0  0  0  0  0  0  0  0  0  0  0  0
    4.3380    0.0933   -1.1661 C   0  0  0  0  0  0  0  0  0  0  0  0
    4.8464    1.3684   -1.8506 C   0  0  0  0  0  0  0  0  0  0  0  0
    6.3649    1.4802   -1.7802 C   0  0  0  0  0  0  0  0  0  0  0  0
    6.8565    1.4201   -0.3426 C   0  0  0  0  0  0  0  0  0  0  0  0
    6.3199    2.6217    0.4183 C   0  0  0  0  0  0  0  0  0  0  0  0
    5.6476    3.5859   -0.3143 C   0  0  0  0  0  0  0  0  0  0  0  0
    5.5767    4.8460    0.3254 C   0  0  0  0  0  0  0  0  0  0  0  0
    5.7817    5.0439    1.6149 C   0  0  0  0  0  0  0  0  0  0  0  0
    5.3656    6.3335    2.3034 C   0  0  0  0  0  0  0  0  0  0  0  0
    4.0475    6.7124    2.4632 N   0  0  0  0  0  0  0  0  0  0  0  0
    3.7409    7.8424    3.2272 C   0  0  0  0  0  0  0  0  0  0  0  0
    2.4919    8.5089    3.5924 N   0  0  0  0  0  0  0  0  0  0  0  0
    2.7888    9.5360    4.3336 C   0  0  0  0  0  0  0  0  0  0  0  0
    1.8430   10.4385    4.8879 O   0  0  0  0  0  0  0  0  0  0  0  0
    0.4564   10.2513    4.6458 C   0  0  0  0  0  0  0  0  0  0  0  0
    0.0732    9.0539    5.1173 C   0  0  0  0  0  0  0  0  0  0  0  0
    0.2375    8.0449    4.0822 O   0  0  0  0  0  0  0  0  0  0  0  0
    0.2082    8.7916    2.7350 C   0  0  0  0  0  0  0  0  0  0  0  0
   -1.1226    8.5431    2.0561 C   0  0  0  0  0  0  0  0  0  0  0  0
   -1.5578    7.2080    2.2668 O   0  0  0  0  0  0  0  0  0  0  0  0
   -2.0095    9.4322    2.5822 C   0  0  0  0  0  0  0  0  0  0  0  0
   -1.3217   10.6604    2.9503 O   0  0  0  0  0  0  0  0  0  0  0  0
    0.1577   10.2861    3.1605 C   0  0  0  0  0  0  0  0  0  0  0  0
    4.1736    9.6228    4.5055 N   0  0  0  0  0  0  0  0  0  0  0  0
    4.7750    8.5826    3.8268 C   0  0  0  0  0  0  0  0  0  0  0  0
    6.0963    8.1855    3.6558 C   0  0  0  0  0  0  0  0  0  0  0  0
    6.3872    7.0683    2.9055 C   0  0  0  0  0  0  0  0  0  0  0  0
    8.0802    6.5575    2.7023 Cl  0  0  0  0  0  0  0  0  0  0  0  0
    6.3884    4.0262    2.2974 C   0  0  0  0  0  0  0  0  0  0  0  0
    6.6100    2.8086    1.7005 C   0  0  0  0  0  0  0  0  0  0  0  0
    6.3611    0.1439    0.3256 C   0  0  0  0  0  0  0  0  0  0  0  0
    4.8439    0.0382    0.2729 C   0  0  0  0  0  0  0  0  0  0  0  0
    2.9430   -0.2092    1.3184 N   0  0  0  0  0  0  0  0  0  0  0  0
    2.6202   -1.1997    2.3616 C   0  0  0  0  0  0  0  0  0  0  0  0
    2.3885   -0.4877    3.6754 C   0  0  0  0  0  0  0  0  0  0  0  0
    3.5311    0.2823    4.0487 O   0  0  0  0  0  0  0  0  0  0  0  0
    3.8082    1.2593    3.0451 C   0  0  0  0  0  0  0  0  0  0  0  0
    4.1122    0.6030    1.7116 C   0  0  0  0  0  0  0  0  0  0  0  0
    4.7001   -0.7607   -1.6994 H   0  0  0  0  0  0  0  0  0  0  0  0
    4.5627    1.3288   -2.8816 H   0  0  0  0  0  0  0  0  0  0  0  0
    4.4135    2.2183   -1.3656 H   0  0  0  0  0  0  0  0  0  0  0  0
    6.6542    2.4221   -2.1973 H   0  0  0  0  0  0  0  0  0  0  0  0
    6.7998    0.6728   -2.3314 H   0  0  0  0  0  0  0  0  0  0  0  0
    7.9264    1.4325   -0.3333 H   0  0  0  0  0  0  0  0  0  0  0  0
    5.2206    3.3953   -1.2767 H   0  0  0  0  0  0  0  0  0  0  0  0
    5.3406    5.6978   -0.2776 H   0  0  0  0  0  0  0  0  0  0  0  0
   -0.0729   11.0410    5.1369 H   0  0  0  0  0  0  0  0  0  0  0  0
    0.6762    8.7961    5.9629 H   0  0  0  0  0  0  0  0  0  0  0  0
   -0.9549    9.0992    5.4102 H   0  0  0  0  0  0  0  0  0  0  0  0
    1.0198    8.5074    2.0983 H   0  0  0  0  0  0  0  0  0  0  0  0
   -1.0312    8.6958    1.0010 H   0  0  0  0  0  0  0  0  0  0  0  0
   -1.6515    7.0388    3.2479 H   0  0  0  0  0  0  0  0  0  0  0  0
   -2.4594    9.0060    3.4544 H   0  0  0  0  0  0  0  0  0  0  0  0
   -2.7640    9.6523    1.8561 H   0  0  0  0  0  0  0  0  0  0  0  0
    0.8166   10.9545    2.6467 H   0  0  0  0  0  0  0  0  0  0  0  0
    4.6603   10.3387    5.0449 H   0  0  0  0  0  0  0  0  0  0  0  0
    6.8868    8.7479    4.1070 H   0  0  0  0  0  0  0  0  0  0  0  0
    6.6950    4.1802    3.3109 H   0  0  0  0  0  0  0  0  0  0  0  0
    7.0202    2.0038    2.2741 H   0  0  0  0  0  0  0  0  0  0  0  0
    6.6602    0.1653    1.3527 H   0  0  0  0  0  0  0  0  0  0  0  0
    6.7858   -0.6994   -0.1779 H   0  0  0  0  0  0  0  0  0  0  0  0
    4.4272    0.8638    0.8111 H   0  0  0  0  0  0  0  0  0  0  0  0
    4.5428   -0.8891    0.7138 H   0  0  0  0  0  0  0  0  0  0  0  0
    3.4336   -1.8870    2.4659 H   0  0  0  0  0  0  0  0  0  0  0  0
    1.7359   -1.7346    2.0846 H   0  0  0  0  0  0  0  0  0  0  0  0
    1.5545    0.1730    3.5625 H   0  0  0  0  0  0  0  0  0  0  0  0
    2.1918   -1.2134    4.4367 H   0  0  0  0  0  0  0  0  0  0  0  0
    4.6648    1.8241    3.3485 H   0  0  0  0  0  0  0  0  0  0  0  0
    2.9564    1.8973    2.9342 H   0  0  0  0  0  0  0  0  0  0  0  0
    4.9807   -0.0165    1.7947 H   0  0  0  0  0  0  0  0  0  0  0  0
    4.2965    1.3540    0.9722 H   0  0  0  0  0  0  0  0  0  0  0  0
  1  2  2  0  0  0  0
  2  3  1  0  0  0  0
  2 36  1  0  0  0  0
  3  4  1  0  0  0  0
  4  5  1  0  0  0  0
  4 35  1  0  0  0  0
  4 42  1  0  0  0  0
  5  6  1  0  0  0  0
  5 43  1  0  0  0  0
  5 44  1  0  0  0  0
  6  7  1  0  0  0  0
  6 45  1  0  0  0  0
  6 46  1  0  0  0  0
  7  8  1  0  0  0  0
  7 34  1  0  0  0  0
  7 47  1  0  0  0  0
  8  9  1  0  0  0  0
  8 33  2  0  0  0  0
  9 10  2  0  0  0  0
  9 48  1  0  0  0  0
 10 11  1  0  0  0  0
 10 49  1  0  0  0  0
 11 12  1  0  0  0  0
 11 32  2  0  0  0  0
 12 13  1  0  0  0  0
 12 30  2  0  0  0  0
 13 14  2  0  0  0  0
 14 15  1  0  0  0  0
 14 28  1  0  0  0  0
 15 16  2  0  0  0  0
 16 17  1  0  0  0  0
 16 27  1  0  0  0  0
 17 18  1  0  0  0  0
 18 19  1  0  0  0  0
 18 26  1  0  0  0  0
 18 50  1  0  0  0  0
 19 20  1  0  0  0  0
 19 51  1  0  0  0  0
 19 52  1  0  0  0  0
 20 21  1  0  0  0  0
 21 22  1  0  0  0  0
 21 26  1  0  0  0  0
 21 53  1  0  0  0  0
 22 23  1  0  0  0  0
 22 24  1  0  0  0  0
 22 54  1  0  0  0  0
 23 55  1  0  0  0  0
 24 25  1  0  0  0  0
 24 56  1  0  0  0  0
 24 57  1  0  0  0  0
 25 26  1  0  0  0  0
 26 58  1  0  0  0  0
 27 28  1  0  0  0  0
 27 59  1  0  0  0  0
 28 29  2  0  0  0  0
 29 30  1  0  0  0  0
 29 60  1  0  0  0  0
 30 31  1  0  0  0  0
 32 33  1  0  0  0  0
 32 61  1  0  0  0  0
 33 62  1  0  0  0  0
 34 35  1  0  0  0  0
 34 63  1  0  0  0  0
 34 64  1  0  0  0  0
 35 65  1  0  0  0  0
 35 66  1  0  0  0  0
 36 37  1  0  0  0  0
 36 41  1  0  0  0  0
 37 38  1  0  0  0  0
 37 67  1  0  0  0  0
 37 68  1  0  0  0  0
 38 39  1  0  0  0  0
 38 69  1  0  0  0  0
 38 70  1  0  0  0  0
 39 40  1  0  0  0  0
 40 41  1  0  0  0  0
 40 71  1  0  0  0  0
 40 72  1  0  0  0  0
 41 73  1  0  0  0  0
 41 74  1  0  0  0  0
M  END
