
 OpenBabel03132512093D

 78 83  0  0  0  0  0  0  0  0999 V2000
    0.9567   -0.0449   -0.0782 C   0  0  0  0  0  0  0  0  0  0  0  0
    0.4833    0.1443    1.2472 O   0  0  0  0  0  0  0  0  0  0  0  0
    0.8264   -0.7864    2.2633 C   0  0  0  0  0  0  0  0  0  0  0  0
   -0.1382   -1.3925    3.0475 C   0  0  0  0  0  0  0  0  0  0  0  0
    0.2167   -2.4360    3.8997 C   0  0  0  0  0  0  0  0  0  0  0  0
   -0.8443   -3.1112    4.7535 C   0  0  0  0  0  0  0  0  0  0  0  0
   -0.6957   -3.0788    6.1384 C   0  0  0  0  0  0  0  0  0  0  0  0
   -1.6728   -3.6418    6.9634 C   0  0  0  0  0  0  0  0  0  0  0  0
   -2.7784   -4.2407    6.3992 C   0  0  0  0  0  0  0  0  0  0  0  0
   -2.9584   -4.2636    5.0082 C   0  0  0  0  0  0  0  0  0  0  0  0
   -1.9681   -3.6929    4.1955 C   0  0  0  0  0  0  0  0  0  0  0  0
   -4.0528   -4.8334    4.4652 N   0  0  0  0  0  0  0  0  0  0  0  0
   -4.2188   -4.8616    3.0049 C   0  0  0  0  0  0  0  0  0  0  0  0
   -5.3169   -4.2485    2.4296 C   0  0  0  0  0  0  0  0  0  0  0  0
   -5.4733   -4.2641    1.0453 C   0  0  0  0  0  0  0  0  0  0  0  0
   -4.5305   -4.9065    0.2386 C   0  0  0  0  0  0  0  0  0  0  0  0
   -4.6940   -4.9113   -1.2725 C   0  0  0  0  0  0  0  0  0  0  0  0
   -6.0063   -5.5856   -1.6380 C   0  0  0  0  0  0  0  0  0  0  0  0
   -4.6992   -3.4807   -1.7862 C   0  0  0  0  0  0  0  0  0  0  0  0
   -3.5400   -5.6724   -1.9046 C   0  0  0  0  0  0  0  0  0  0  0  0
   -2.6366   -6.1817   -1.1701 O   0  0  0  0  0  0  0  0  0  0  0  0
   -3.4690   -5.8193   -3.3655 N   0  0  0  0  0  0  0  0  0  0  0  0
   -3.7027   -4.7559   -4.1603 C   0  0  0  0  0  0  0  0  0  0  0  0
   -3.6031   -4.8664   -5.5549 C   0  0  0  0  0  0  0  0  0  0  0  0
   -3.8402   -3.7740   -6.3693 C   0  0  0  0  0  0  0  0  0  0  0  0
   -4.1937   -2.5511   -5.8031 C   0  0  0  0  0  0  0  0  0  0  0  0
   -4.4573   -1.3921   -6.6680 N   0  0  0  0  0  0  0  0  0  0  0  0
   -3.6996   -0.1287   -6.6083 C   0  0  0  0  0  0  0  0  0  0  0  0
   -4.6532    1.0169   -6.3531 C   0  0  0  0  0  0  0  0  0  0  0  0
   -5.6592    1.0805   -7.3639 O   0  0  0  0  0  0  0  0  0  0  0  0
   -6.4058   -0.1363   -7.3840 C   0  0  0  0  0  0  0  0  0  0  0  0
   -5.5125   -1.3213   -7.6988 C   0  0  0  0  0  0  0  0  0  0  0  0
   -4.2984   -2.4231   -4.4157 C   0  0  0  0  0  0  0  0  0  0  0  0
   -4.0376   -3.5100   -3.6095 C   0  0  0  0  0  0  0  0  0  0  0  0
   -3.4513   -5.5356    0.8209 C   0  0  0  0  0  0  0  0  0  0  0  0
   -3.2630   -5.5119    2.2107 C   0  0  0  0  0  0  0  0  0  0  0  0
   -2.1938   -6.1122    2.7707 N   0  0  0  0  0  0  0  0  0  0  0  0
   -3.8195   -4.8868    7.2987 C   0  0  0  0  0  0  0  0  0  0  0  0
   -4.8429   -5.4419    6.7892 O   0  0  0  0  0  0  0  0  0  0  0  0
    1.5449   -2.8637    3.9720 C   0  0  0  0  0  0  0  0  0  0  0  0
    2.5045   -2.2391    3.2050 C   0  0  0  0  0  0  0  0  0  0  0  0
    2.1645   -1.2021    2.3236 C   0  0  0  0  0  0  0  0  0  0  0  0
    3.1059   -0.6100    1.5617 N   0  0  0  0  0  0  0  0  0  0  0  0
    0.6000    0.7487   -0.7010 H   0  0  0  0  0  0  0  0  0  0  0  0
    0.6000   -0.9810   -0.4540 H   0  0  0  0  0  0  0  0  0  0  0  0
    2.0267   -0.0449   -0.0782 H   0  0  0  0  0  0  0  0  0  0  0  0
   -1.1543   -1.0609    2.9999 H   0  0  0  0  0  0  0  0  0  0  0  0
    0.1693   -2.6216    6.5715 H   0  0  0  0  0  0  0  0  0  0  0  0
   -1.5633   -3.6080    8.0273 H   0  0  0  0  0  0  0  0  0  0  0  0
   -2.0833   -3.7077    3.1318 H   0  0  0  0  0  0  0  0  0  0  0  0
   -4.7656   -5.2450    5.0675 H   0  0  0  0  0  0  0  0  0  0  0  0
   -6.0444   -3.7633    3.0461 H   0  0  0  0  0  0  0  0  0  0  0  0
   -6.3181   -3.7829    0.5985 H   0  0  0  0  0  0  0  0  0  0  0  0
   -6.8186   -5.0498   -1.1931 H   0  0  0  0  0  0  0  0  0  0  0  0
   -6.1214   -5.5890   -2.7018 H   0  0  0  0  0  0  0  0  0  0  0  0
   -6.0027   -6.5926   -1.2764 H   0  0  0  0  0  0  0  0  0  0  0  0
   -3.7754   -3.0060   -1.5289 H   0  0  0  0  0  0  0  0  0  0  0  0
   -4.8143   -3.4841   -2.8500 H   0  0  0  0  0  0  0  0  0  0  0  0
   -5.5115   -2.9449   -1.3412 H   0  0  0  0  0  0  0  0  0  0  0  0
   -3.2432   -6.7248   -3.7773 H   0  0  0  0  0  0  0  0  0  0  0  0
   -3.3409   -5.8064   -5.9937 H   0  0  0  0  0  0  0  0  0  0  0  0
   -3.7523   -3.8678   -7.4315 H   0  0  0  0  0  0  0  0  0  0  0  0
   -3.1927    0.0283   -7.5374 H   0  0  0  0  0  0  0  0  0  0  0  0
   -2.9824   -0.1796   -5.8160 H   0  0  0  0  0  0  0  0  0  0  0  0
   -5.1293    0.8598   -5.4078 H   0  0  0  0  0  0  0  0  0  0  0  0
   -4.1037    1.9350   -6.3482 H   0  0  0  0  0  0  0  0  0  0  0  0
   -7.1536   -0.0631   -8.1459 H   0  0  0  0  0  0  0  0  0  0  0  0
   -6.8579   -0.2846   -6.4256 H   0  0  0  0  0  0  0  0  0  0  0  0
   -5.0744   -1.2060   -8.6682 H   0  0  0  0  0  0  0  0  0  0  0  0
   -6.0895   -2.2224   -7.6886 H   0  0  0  0  0  0  0  0  0  0  0  0
   -4.5796   -1.4864   -3.9815 H   0  0  0  0  0  0  0  0  0  0  0  0
   -4.0913   -3.4018   -2.5464 H   0  0  0  0  0  0  0  0  0  0  0  0
   -2.7458   -6.0505    0.2028 H   0  0  0  0  0  0  0  0  0  0  0  0
   -1.5060   -6.5817    2.1818 H   0  0  0  0  0  0  0  0  0  0  0  0
    1.8155   -3.6717    4.6192 H   0  0  0  0  0  0  0  0  0  0  0  0
    3.5253   -2.5501    3.2830 H   0  0  0  0  0  0  0  0  0  0  0  0
    2.8484    0.1498    0.9318 H   0  0  0  0  0  0  0  0  0  0  0  0
    4.0755   -0.9219    1.6151 H   0  0  0  0  0  0  0  0  0  0  0  0
  1  2  1  0  0  0  0
  1 44  1  0  0  0  0
  1 45  1  0  0  0  0
  1 46  1  0  0  0  0
  2  3  1  0  0  0  0
  3  4  1  0  0  0  0
  3 42  2  0  0  0  0
  4  5  2  0  0  0  0
  4 47  1  0  0  0  0
  5  6  1  0  0  0  0
  5 40  1  0  0  0  0
  6  7  1  0  0  0  0
  6 11  2  0  0  0  0
  7  8  2  0  0  0  0
  7 48  1  0  0  0  0
  8  9  1  0  0  0  0
  8 49  1  0  0  0  0
  9 10  2  0  0  0  0
  9 38  1  0  0  0  0
 10 11  1  0  0  0  0
 10 12  1  0  0  0  0
 11 50  1  0  0  0  0
 12 13  1  0  0  0  0
 12 51  1  0  0  0  0
 13 14  1  0  0  0  0
 13 36  2  0  0  0  0
 14 15  2  0  0  0  0
 14 52  1  0  0  0  0
 15 16  1  0  0  0  0
 15 53  1  0  0  0  0
 16 17  1  0  0  0  0
 16 35  2  0  0  0  0
 17 18  1  0  0  0  0
 17 19  1  0  0  0  0
 17 20  1  0  0  0  0
 18 54  1  0  0  0  0
 18 55  1  0  0  0  0
 18 56  1  0  0  0  0
 19 57  1  0  0  0  0
 19 58  1  0  0  0  0
 19 59  1  0  0  0  0
 20 21  2  0  0  0  0
 20 22  1  0  0  0  0
 22 23  1  0  0  0  0
 22 60  1  0  0  0  0
 23 24  1  0  0  0  0
 23 34  2  0  0  0  0
 24 25  2  0  0  0  0
 24 61  1  0  0  0  0
 25 26  1  0  0  0  0
 25 62  1  0  0  0  0
 26 27  1  0  0  0  0
 26 33  2  0  0  0  0
 27 28  1  0  0  0  0
 27 32  1  0  0  0  0
 28 29  1  0  0  0  0
 28 63  1  0  0  0  0
 28 64  1  0  0  0  0
 29 30  1  0  0  0  0
 29 65  1  0  0  0  0
 29 66  1  0  0  0  0
 30 31  1  0  0  0  0
 31 32  1  0  0  0  0
 31 67  1  0  0  0  0
 31 68  1  0  0  0  0
 32 69  1  0  0  0  0
 32 70  1  0  0  0  0
 33 34  1  0  0  0  0
 33 71  1  0  0  0  0
 34 72  1  0  0  0  0
 35 36  1  0  0  0  0
 35 73  1  0  0  0  0
 36 37  1  0  0  0  0
 37 38  1  0  0  0  0
 37 74  1  0  0  0  0
 38 39  2  0  0  0  0
 40 41  2  0  0  0  0
 40 75  1  0  0  0  0
 41 42  1  0  0  0  0
 41 76  1  0  0  0  0
 42 43  1  0  0  0  0
 43 77  1  0  0  0  0
 43 78  1  0  0  0  0
M  END
