
 OpenBabel03132512093D

 40 44  0  0  0  0  0  0  0  0999 V2000
    0.9792   -0.0526   -0.0825 C   0  0  0  0  0  0  0  0  0  0  0  0
    0.4725    0.8315    1.0454 C   0  0  0  0  0  0  0  0  0  0  0  0
   -0.0659    0.4653    2.1906 N   0  0  0  0  0  0  0  0  0  0  0  0
   -0.2032    1.5099    2.9939 N   0  0  0  0  0  0  0  0  0  0  0  0
    0.2560    2.5923    2.3676 C   0  0  0  0  0  0  0  0  0  0  0  0
    0.3748    3.9591    2.6958 C   0  0  0  0  0  0  0  0  0  0  0  0
    0.9059    4.8132    1.7942 C   0  0  0  0  0  0  0  0  0  0  0  0
    1.0352    6.2354    2.1427 N   0  0  0  0  0  0  0  0  0  0  0  0
    0.5889    6.7130    3.4594 C   0  0  0  0  0  0  0  0  0  0  0  0
    1.1827    6.1769    4.5969 N   0  0  0  0  0  0  0  0  0  0  0  0
    0.7800    6.4445    5.8114 C   0  0  0  0  0  0  0  0  0  0  0  0
    1.4741    5.8185    6.9460 N   0  0  0  0  0  0  0  0  0  0  0  0
    1.0399    6.1036    8.3212 C   0  0  0  0  0  0  0  0  0  0  0  0
    0.0410    7.2298    8.5951 C   0  0  0  0  0  0  0  0  0  0  0  0
   -0.3839    5.7700    8.7733 C   0  0  0  0  0  0  0  0  0  0  0  0
   -0.2490    7.2741    6.0550 C   0  0  0  0  0  0  0  0  0  0  0  0
   -0.8782    7.7310    7.1963 O   0  0  0  0  0  0  0  0  0  0  0  0
   -1.8662    8.5596    6.8224 C   0  0  0  0  0  0  0  0  0  0  0  0
   -1.8999    8.6588    5.4256 C   0  0  0  0  0  0  0  0  0  0  0  0
   -0.9453    7.9031    4.9226 C   0  0  0  0  0  0  0  0  0  0  0  0
   -0.4766    7.5882    3.5730 N   0  0  0  0  0  0  0  0  0  0  0  0
    1.3236    4.3890    0.5725 C   0  0  0  0  0  0  0  0  0  0  0  0
    1.2393    3.0910    0.2047 C   0  0  0  0  0  0  0  0  0  0  0  0
    0.7011    2.1540    1.0889 C   0  0  0  0  0  0  0  0  0  0  0  0
    0.6225    0.3238   -1.0184 H   0  0  0  0  0  0  0  0  0  0  0  0
    0.6225   -1.0513    0.0595 H   0  0  0  0  0  0  0  0  0  0  0  0
    2.0492   -0.0526   -0.0825 H   0  0  0  0  0  0  0  0  0  0  0  0
   -0.3389   -0.4889    2.4259 H   0  0  0  0  0  0  0  0  0  0  0  0
    0.0473    4.3158    3.6500 H   0  0  0  0  0  0  0  0  0  0  0  0
    1.4345    6.8909    1.4709 H   0  0  0  0  0  0  0  0  0  0  0  0
    2.2569    5.1863    6.7791 H   0  0  0  0  0  0  0  0  0  0  0  0
    2.0201    5.8569    8.6721 H   0  0  0  0  0  0  0  0  0  0  0  0
    0.0346    8.1009    9.2165 H   0  0  0  0  0  0  0  0  0  0  0  0
   -0.3515    7.8060    7.7834 H   0  0  0  0  0  0  0  0  0  0  0  0
   -1.1759    5.1603    8.3914 H   0  0  0  0  0  0  0  0  0  0  0  0
   -0.5559    5.3787    9.7543 H   0  0  0  0  0  0  0  0  0  0  0  0
   -2.5288    9.0680    7.4913 H   0  0  0  0  0  0  0  0  0  0  0  0
   -2.5883    9.2513    4.8599 H   0  0  0  0  0  0  0  0  0  0  0  0
    1.7295    5.1006   -0.1158 H   0  0  0  0  0  0  0  0  0  0  0  0
    1.5837    2.7828   -0.7603 H   0  0  0  0  0  0  0  0  0  0  0  0
  1  2  1  0  0  0  0
  1 25  1  0  0  0  0
  1 26  1  0  0  0  0
  1 27  1  0  0  0  0
  2  3  1  0  0  0  0
  2 24  2  0  0  0  0
  3  4  1  0  0  0  0
  3 28  1  0  0  0  0
  4  5  2  0  0  0  0
  5  6  1  0  0  0  0
  5 24  1  0  0  0  0
  6  7  2  0  0  0  0
  6 29  1  0  0  0  0
  7  8  1  0  0  0  0
  7 22  1  0  0  0  0
  8  9  1  0  0  0  0
  8 30  1  0  0  0  0
  9 10  1  0  0  0  0
  9 21  2  0  0  0  0
 10 11  2  0  0  0  0
 11 12  1  0  0  0  0
 11 16  1  0  0  0  0
 12 13  1  0  0  0  0
 12 31  1  0  0  0  0
 13 14  1  0  0  0  0
 13 15  1  0  0  0  0
 13 32  1  0  0  0  0
 14 15  1  0  0  0  0
 14 33  1  0  0  0  0
 14 34  1  0  0  0  0
 15 35  1  0  0  0  0
 15 36  1  0  0  0  0
 16 17  1  0  0  0  0
 16 20  2  0  0  0  0
 17 18  1  0  0  0  0
 18 19  2  0  0  0  0
 18 37  1  0  0  0  0
 19 20  1  0  0  0  0
 19 38  1  0  0  0  0
 20 21  1  0  0  0  0
 22 23  2  0  0  0  0
 22 39  1  0  0  0  0
 23 24  1  0  0  0  0
 23 40  1  0  0  0  0
M  END
