
 OpenBabel03132512083D

 62 68  0  0  0  0  0  0  0  0999 V2000
    0.9164    0.0445   -0.0320 O   0  0  0  0  0  0  0  0  0  0  0  0
    0.4430   -1.0413    0.7511 C   0  0  0  0  0  0  0  0  0  0  0  0
    1.3368   -1.4554    1.6637 C   0  0  0  0  0  0  0  0  0  0  0  0
    2.1889   -2.4819    1.0836 O   0  0  0  0  0  0  0  0  0  0  0  0
    1.3963   -3.0997   -0.0843 C   0  0  0  0  0  0  0  0  0  0  0  0
    0.8901   -4.4671    0.3250 C   0  0  0  0  0  0  0  0  0  0  0  0
    1.8517   -5.1474    1.1181 O   0  0  0  0  0  0  0  0  0  0  0  0
    2.2944   -4.5777    2.3412 C   0  0  0  0  0  0  0  0  0  0  0  0
    1.5526   -4.2860    3.3692 N   0  0  0  0  0  0  0  0  0  0  0  0
    2.3827   -3.5637    4.3318 C   0  0  0  0  0  0  0  0  0  0  0  0
    2.1427   -3.0082    5.5922 N   0  0  0  0  0  0  0  0  0  0  0  0
    3.1679   -2.3735    6.2649 C   0  0  0  0  0  0  0  0  0  0  0  0
    2.9145   -1.7745    7.6387 C   0  0  0  0  0  0  0  0  0  0  0  0
    2.6244   -2.5762    8.7245 C   0  0  0  0  0  0  0  0  0  0  0  0
    2.5290   -2.0606    9.9400 C   0  0  0  0  0  0  0  0  0  0  0  0
    2.7120   -0.7696   10.1614 C   0  0  0  0  0  0  0  0  0  0  0  0
    2.5985   -0.2268   11.5766 C   0  0  0  0  0  0  0  0  0  0  0  0
    3.4833   -0.6305   12.5564 C   0  0  0  0  0  0  0  0  0  0  0  0
    3.4357   -0.1036   13.7698 C   0  0  0  0  0  0  0  0  0  0  0  0
    2.5506    0.8264   14.0872 C   0  0  0  0  0  0  0  0  0  0  0  0
    2.5408    1.4055   15.4926 C   0  0  0  0  0  0  0  0  0  0  0  0
    2.2972    0.3297   16.4642 N   0  0  0  0  0  0  0  0  0  0  0  0
    3.0906   -0.7568   16.6277 C   0  0  0  0  0  0  0  0  0  0  0  0
    2.6252   -1.3957   17.7285 C   0  0  0  0  0  0  0  0  0  0  0  0
    1.6067   -0.7122   18.1741 N   0  0  0  0  0  0  0  0  0  0  0  0
    1.4092    0.3109   17.4204 C   0  0  0  0  0  0  0  0  0  0  0  0
    1.6349    1.2777   13.1565 C   0  0  0  0  0  0  0  0  0  0  0  0
    1.6525    0.7427   11.8767 C   0  0  0  0  0  0  0  0  0  0  0  0
    3.0051    0.0913    9.1215 C   0  0  0  0  0  0  0  0  0  0  0  0
    3.1066   -0.4144    7.8337 C   0  0  0  0  0  0  0  0  0  0  0  0
    4.4353   -2.2792    5.6894 C   0  0  0  0  0  0  0  0  0  0  0  0
    5.7419   -1.4441    6.5633 Cl  0  0  0  0  0  0  0  0  0  0  0  0
    4.6833   -2.8272    4.4509 C   0  0  0  0  0  0  0  0  0  0  0  0
    3.6636   -3.4709    3.7593 C   0  0  0  0  0  0  0  0  0  0  0  0
    3.5942   -4.0997    2.5329 N   0  0  0  0  0  0  0  0  0  0  0  0
   -0.2637   -4.2720    1.0210 C   0  0  0  0  0  0  0  0  0  0  0  0
   -0.9518   -3.0919    0.5203 O   0  0  0  0  0  0  0  0  0  0  0  0
    0.1203   -2.2141   -0.1527 C   0  0  0  0  0  0  0  0  0  0  0  0
    1.9164    0.0445   -0.0320 H   0  0  0  0  0  0  0  0  0  0  0  0
   -0.4253   -0.6904    1.2685 H   0  0  0  0  0  0  0  0  0  0  0  0
    1.9393   -0.6266    1.9718 H   0  0  0  0  0  0  0  0  0  0  0  0
    0.8206   -1.8580    2.5102 H   0  0  0  0  0  0  0  0  0  0  0  0
    1.9790   -3.1612   -0.9796 H   0  0  0  0  0  0  0  0  0  0  0  0
    0.6995   -5.0634   -0.5428 H   0  0  0  0  0  0  0  0  0  0  0  0
    2.4751   -3.6261    8.5820 H   0  0  0  0  0  0  0  0  0  0  0  0
    2.2981   -2.7038   10.7633 H   0  0  0  0  0  0  0  0  0  0  0  0
    4.2158   -1.3777   12.3325 H   0  0  0  0  0  0  0  0  0  0  0  0
    4.1302   -0.4383   14.5119 H   0  0  0  0  0  0  0  0  0  0  0  0
    3.4864    1.8629   15.6965 H   0  0  0  0  0  0  0  0  0  0  0  0
    1.7656    2.1389   15.5707 H   0  0  0  0  0  0  0  0  0  0  0  0
    3.9159   -1.0502   16.0132 H   0  0  0  0  0  0  0  0  0  0  0  0
    3.0199   -2.2948   18.1537 H   0  0  0  0  0  0  0  0  0  0  0  0
    0.6346    1.0364   17.5566 H   0  0  0  0  0  0  0  0  0  0  0  0
    0.9211    2.0302   13.4194 H   0  0  0  0  0  0  0  0  0  0  0  0
    0.9520    1.0705   11.1373 H   0  0  0  0  0  0  0  0  0  0  0  0
    3.1519    1.1348    9.3070 H   0  0  0  0  0  0  0  0  0  0  0  0
    3.3281    0.2304    7.0089 H   0  0  0  0  0  0  0  0  0  0  0  0
    5.6607   -2.7575    4.0209 H   0  0  0  0  0  0  0  0  0  0  0  0
    4.3659   -4.1995    1.8734 H   0  0  0  0  0  0  0  0  0  0  0  0
   -0.0308   -4.1309    2.0558 H   0  0  0  0  0  0  0  0  0  0  0  0
   -0.8964   -5.1271    0.9055 H   0  0  0  0  0  0  0  0  0  0  0  0
   -0.1841   -1.8845   -1.1240 H   0  0  0  0  0  0  0  0  0  0  0  0
  1  2  1  0  0  0  0
  1 39  1  0  0  0  0
  2  3  1  0  0  0  0
  2 38  1  0  0  0  0
  2 40  1  0  0  0  0
  3  4  1  0  0  0  0
  3 41  1  0  0  0  0
  3 42  1  0  0  0  0
  4  5  1  0  0  0  0
  5  6  1  0  0  0  0
  5 38  1  0  0  0  0
  5 43  1  0  0  0  0
  6  7  1  0  0  0  0
  6 36  1  0  0  0  0
  6 44  1  0  0  0  0
  7  8  1  0  0  0  0
  8  9  2  0  0  0  0
  8 35  1  0  0  0  0
  9 10  1  0  0  0  0
 10 11  1  0  0  0  0
 10 34  2  0  0  0  0
 11 12  2  0  0  0  0
 12 13  1  0  0  0  0
 12 31  1  0  0  0  0
 13 14  1  0  0  0  0
 13 30  2  0  0  0  0
 14 15  2  0  0  0  0
 14 45  1  0  0  0  0
 15 16  1  0  0  0  0
 15 46  1  0  0  0  0
 16 17  1  0  0  0  0
 16 29  2  0  0  0  0
 17 18  1  0  0  0  0
 17 28  2  0  0  0  0
 18 19  2  0  0  0  0
 18 47  1  0  0  0  0
 19 20  1  0  0  0  0
 19 48  1  0  0  0  0
 20 21  1  0  0  0  0
 20 27  2  0  0  0  0
 21 22  1  0  0  0  0
 21 49  1  0  0  0  0
 21 50  1  0  0  0  0
 22 23  1  0  0  0  0
 22 26  1  0  0  0  0
 23 24  2  0  0  0  0
 23 51  1  0  0  0  0
 24 25  1  0  0  0  0
 24 52  1  0  0  0  0
 25 26  2  0  0  0  0
 26 53  1  0  0  0  0
 27 28  1  0  0  0  0
 27 54  1  0  0  0  0
 28 55  1  0  0  0  0
 29 30  1  0  0  0  0
 29 56  1  0  0  0  0
 30 57  1  0  0  0  0
 31 32  1  0  0  0  0
 31 33  2  0  0  0  0
 33 34  1  0  0  0  0
 33 58  1  0  0  0  0
 34 35  1  0  0  0  0
 35 59  1  0  0  0  0
 36 37  1  0  0  0  0
 36 60  1  0  0  0  0
 36 61  1  0  0  0  0
 37 38  1  0  0  0  0
 38 62  1  0  0  0  0
M  END
