
 OpenBabel03132514253D

 40 44  0  0  0  0  0  0  0  0999 V2000
    1.0139    0.0861   -0.0489 C   0  0  0  0  0  0  0  0  0  0  0  0
    0.5072   -1.3109   -0.3683 C   0  0  0  0  0  0  0  0  0  0  0  0
    1.1337   -2.4126   -0.0087 N   0  0  0  0  0  0  0  0  0  0  0  0
    0.4882   -3.4802   -0.4548 N   0  0  0  0  0  0  0  0  0  0  0  0
   -0.5910   -3.0770   -1.1236 C   0  0  0  0  0  0  0  0  0  0  0  0
   -1.6393   -3.7257   -1.8094 C   0  0  0  0  0  0  0  0  0  0  0  0
   -2.6060   -2.9856   -2.3944 C   0  0  0  0  0  0  0  0  0  0  0  0
   -3.7008   -3.6654   -3.1017 N   0  0  0  0  0  0  0  0  0  0  0  0
   -3.7345   -5.1336   -3.1660 C   0  0  0  0  0  0  0  0  0  0  0  0
   -3.7949   -5.8861   -1.9981 N   0  0  0  0  0  0  0  0  0  0  0  0
   -3.8247   -7.1929   -1.9864 C   0  0  0  0  0  0  0  0  0  0  0  0
   -3.8817   -7.8924   -0.6947 N   0  0  0  0  0  0  0  0  0  0  0  0
   -3.9160   -9.3615   -0.6553 C   0  0  0  0  0  0  0  0  0  0  0  0
   -4.0482   -9.9302   -2.0695 C   0  0  0  0  0  0  0  0  0  0  0  0
   -3.1671  -10.6402   -1.0386 C   0  0  0  0  0  0  0  0  0  0  0  0
   -3.8048   -7.9170   -3.1186 C   0  0  0  0  0  0  0  0  0  0  0  0
   -3.8262   -9.2672   -3.4077 O   0  0  0  0  0  0  0  0  0  0  0  0
   -3.7873   -9.4067   -4.7424 C   0  0  0  0  0  0  0  0  0  0  0  0
   -3.7398   -8.1459   -5.3507 C   0  0  0  0  0  0  0  0  0  0  0  0
   -3.7488   -7.2208   -4.4128 C   0  0  0  0  0  0  0  0  0  0  0  0
   -3.7162   -5.7582   -4.4004 N   0  0  0  0  0  0  0  0  0  0  0  0
   -2.5906   -1.6276   -2.3448 C   0  0  0  0  0  0  0  0  0  0  0  0
   -1.6148   -0.9519   -1.6980 C   0  0  0  0  0  0  0  0  0  0  0  0
   -0.5846   -1.6548   -1.0703 C   0  0  0  0  0  0  0  0  0  0  0  0
    0.6572    0.3831    0.9152 H   0  0  0  0  0  0  0  0  0  0  0  0
    0.6572    0.7726   -0.7881 H   0  0  0  0  0  0  0  0  0  0  0  0
    2.0839    0.0861   -0.0489 H   0  0  0  0  0  0  0  0  0  0  0  0
    1.9952   -2.4399    0.5369 H   0  0  0  0  0  0  0  0  0  0  0  0
   -1.6682   -4.7938   -1.8657 H   0  0  0  0  0  0  0  0  0  0  0  0
   -4.4371   -3.1183   -3.5477 H   0  0  0  0  0  0  0  0  0  0  0  0
   -3.8974   -7.3584    0.1742 H   0  0  0  0  0  0  0  0  0  0  0  0
   -4.2691   -9.1894    0.3400 H   0  0  0  0  0  0  0  0  0  0  0  0
   -4.8665  -10.2218   -2.6943 H   0  0  0  0  0  0  0  0  0  0  0  0
   -3.5994   -9.4194   -2.8957 H   0  0  0  0  0  0  0  0  0  0  0  0
   -2.1458  -10.9575   -1.0063 H   0  0  0  0  0  0  0  0  0  0  0  0
   -3.4723  -11.5815   -0.6314 H   0  0  0  0  0  0  0  0  0  0  0  0
   -3.7920  -10.3412   -5.2636 H   0  0  0  0  0  0  0  0  0  0  0  0
   -3.7023   -7.9639   -6.4044 H   0  0  0  0  0  0  0  0  0  0  0  0
   -3.3708   -1.0793   -2.8301 H   0  0  0  0  0  0  0  0  0  0  0  0
   -1.6318    0.1175   -1.6671 H   0  0  0  0  0  0  0  0  0  0  0  0
  1  2  1  0  0  0  0
  1 25  1  0  0  0  0
  1 26  1  0  0  0  0
  1 27  1  0  0  0  0
  2  3  1  0  0  0  0
  2 24  2  0  0  0  0
  3  4  1  0  0  0  0
  3 28  1  0  0  0  0
  4  5  2  0  0  0  0
  5  6  1  0  0  0  0
  5 24  1  0  0  0  0
  6  7  2  0  0  0  0
  6 29  1  0  0  0  0
  7  8  1  0  0  0  0
  7 22  1  0  0  0  0
  8  9  1  0  0  0  0
  8 30  1  0  0  0  0
  9 10  1  0  0  0  0
  9 21  2  0  0  0  0
 10 11  2  0  0  0  0
 11 12  1  0  0  0  0
 11 16  1  0  0  0  0
 12 13  1  0  0  0  0
 12 31  1  0  0  0  0
 13 14  1  0  0  0  0
 13 15  1  0  0  0  0
 13 32  1  0  0  0  0
 14 15  1  0  0  0  0
 14 33  1  0  0  0  0
 14 34  1  0  0  0  0
 15 35  1  0  0  0  0
 15 36  1  0  0  0  0
 16 17  1  0  0  0  0
 16 20  2  0  0  0  0
 17 18  1  0  0  0  0
 18 19  2  0  0  0  0
 18 37  1  0  0  0  0
 19 20  1  0  0  0  0
 19 38  1  0  0  0  0
 20 21  1  0  0  0  0
 22 23  2  0  0  0  0
 22 39  1  0  0  0  0
 23 24  1  0  0  0  0
 23 40  1  0  0  0  0
M  END
