
 OpenBabel03132512083D

 46 48  0  0  0  0  0  0  0  0999 V2000
    1.0241   -0.0478   -0.0845 C   0  0  0  0  0  0  0  0  0  0  0  0
    0.5507   -1.0928   -0.9213 O   0  0  0  0  0  0  0  0  0  0  0  0
    0.8938   -1.1096   -2.2992 C   0  0  0  0  0  0  0  0  0  0  0  0
   -0.0866   -1.3776   -3.2402 C   0  0  0  0  0  0  0  0  0  0  0  0
    0.4194   -1.6547   -4.5322 C   0  0  0  0  0  0  0  0  0  0  0  0
   -0.5035   -2.3515   -5.5186 C   0  0  0  0  0  0  0  0  0  0  0  0
   -1.6671   -1.7517   -5.9712 C   0  0  0  0  0  0  0  0  0  0  0  0
   -2.5013   -2.6130   -6.7224 C   0  0  0  0  0  0  0  0  0  0  0  0
   -2.1063   -3.7474   -7.2712 C   0  0  0  0  0  0  0  0  0  0  0  0
   -0.9150   -4.2536   -6.8307 C   0  0  0  0  0  0  0  0  0  0  0  0
   -0.1054   -3.5267   -5.9916 C   0  0  0  0  0  0  0  0  0  0  0  0
    1.4917   -4.1661   -5.5346 Cl  0  0  0  0  0  0  0  0  0  0  0  0
   -2.9044   -4.4292   -8.3003 N   0  0  0  0  0  0  0  0  0  0  0  0
   -2.4770   -5.5582   -8.8234 C   0  0  0  0  0  0  0  0  0  0  0  0
   -3.9531   -2.2042   -6.9109 C   0  0  0  0  0  0  0  0  0  0  0  0
   -4.0135   -0.8654   -7.6282 C   0  0  0  0  0  0  0  0  0  0  0  0
   -4.6064   -0.7708   -8.7483 O   0  0  0  0  0  0  0  0  0  0  0  0
   -3.4074    0.2795   -7.0467 O   0  0  0  0  0  0  0  0  0  0  0  0
    1.6377   -1.3500   -4.9406 C   0  0  0  0  0  0  0  0  0  0  0  0
    2.5425   -1.0278   -3.9675 C   0  0  0  0  0  0  0  0  0  0  0  0
    2.1482   -0.8677   -2.6611 C   0  0  0  0  0  0  0  0  0  0  0  0
    3.1572   -0.4095   -1.6207 C   0  0  0  0  0  0  0  0  0  0  0  0
    4.2971   -1.4121   -1.5444 C   0  0  0  0  0  0  0  0  0  0  0  0
    3.7060    0.9527   -2.0126 C   0  0  0  0  0  0  0  0  0  0  0  0
    2.4775   -0.3109   -0.2647 C   0  0  0  0  0  0  0  0  0  0  0  0
    1.4126    0.6257   -0.3360 O   0  0  0  0  0  0  0  0  0  0  0  0
    0.6674   -0.2002    0.9128 H   0  0  0  0  0  0  0  0  0  0  0  0
    0.6674    0.8920   -0.4511 H   0  0  0  0  0  0  0  0  0  0  0  0
    2.0941   -0.0478   -0.0845 H   0  0  0  0  0  0  0  0  0  0  0  0
   -1.1318   -1.3754   -3.0109 H   0  0  0  0  0  0  0  0  0  0  0  0
   -1.9129   -0.7298   -5.7709 H   0  0  0  0  0  0  0  0  0  0  0  0
   -0.6089   -5.2299   -7.1438 H   0  0  0  0  0  0  0  0  0  0  0  0
   -3.0580   -6.0545   -9.5725 H   0  0  0  0  0  0  0  0  0  0  0  0
   -4.4593   -2.9446   -7.4945 H   0  0  0  0  0  0  0  0  0  0  0  0
   -3.4471    1.1603   -7.5186 H   0  0  0  0  0  0  0  0  0  0  0  0
    1.9025   -1.3549   -5.9774 H   0  0  0  0  0  0  0  0  0  0  0  0
    3.5725   -0.8985   -4.2271 H   0  0  0  0  0  0  0  0  0  0  0  0
    4.7756   -1.4815   -2.4989 H   0  0  0  0  0  0  0  0  0  0  0  0
    5.0074   -1.0895   -0.8120 H   0  0  0  0  0  0  0  0  0  0  0  0
    3.9108   -2.3710   -1.2685 H   0  0  0  0  0  0  0  0  0  0  0  0
    2.9036    1.6585   -2.0663 H   0  0  0  0  0  0  0  0  0  0  0  0
    4.4162    1.2753   -1.2802 H   0  0  0  0  0  0  0  0  0  0  0  0
    4.1845    0.8834   -2.9671 H   0  0  0  0  0  0  0  0  0  0  0  0
    2.0912   -1.2699    0.0112 H   0  0  0  0  0  0  0  0  0  0  0  0
    3.1878    0.0116    0.4677 H   0  0  0  0  0  0  0  0  0  0  0  0
    1.7736    1.5219   -0.5938 H   0  0  0  0  0  0  0  0  0  0  0  0
  1  2  1  0  0  0  0
  1 27  1  0  0  0  0
  1 28  1  0  0  0  0
  1 29  1  0  0  0  0
  2  3  1  0  0  0  0
  3  4  1  0  0  0  0
  3 21  2  0  0  0  0
  4  5  2  0  0  0  0
  4 30  1  0  0  0  0
  5  6  1  0  0  0  0
  5 19  1  0  0  0  0
  6  7  1  0  0  0  0
  6 11  2  0  0  0  0
  7  8  2  0  0  0  0
  7 31  1  0  0  0  0
  8  9  1  0  0  0  0
  8 15  1  0  0  0  0
  9 10  2  0  0  0  0
  9 13  1  0  0  0  0
 10 11  1  0  0  0  0
 10 32  1  0  0  0  0
 11 12  1  0  0  0  0
 13 14  2  0  0  0  0
 14 15  1  0  0  0  0
 14 33  1  0  0  0  0
 15 16  1  0  0  0  0
 15 34  1  0  0  0  0
 16 17  2  0  0  0  0
 16 18  1  0  0  0  0
 18 35  1  0  0  0  0
 19 20  2  0  0  0  0
 19 36  1  0  0  0  0
 20 21  1  0  0  0  0
 20 37  1  0  0  0  0
 21 22  1  0  0  0  0
 22 23  1  0  0  0  0
 22 24  1  0  0  0  0
 22 25  1  0  0  0  0
 23 38  1  0  0  0  0
 23 39  1  0  0  0  0
 23 40  1  0  0  0  0
 24 41  1  0  0  0  0
 24 42  1  0  0  0  0
 24 43  1  0  0  0  0
 25 26  1  0  0  0  0
 25 44  1  0  0  0  0
 25 45  1  0  0  0  0
 26 46  1  0  0  0  0
M  END
