
 OpenBabel03132512083D

 41 44  0  0  0  0  0  0  0  0999 V2000
    1.0349    0.0659    0.0667 O   0  0  0  0  0  0  0  0  0  0  0  0
    2.3058    0.0659    0.0667 C   0  0  0  0  0  0  0  0  0  0  0  0
    3.0158   -0.7155    1.0162 O   0  0  0  0  0  0  0  0  0  0  0  0
    3.0658    0.9023   -0.9498 C   0  0  0  0  0  0  0  0  0  0  0  0
    4.0755    0.3936   -1.7658 C   0  0  0  0  0  0  0  0  0  0  0  0
    4.6128    1.1675   -2.7818 C   0  0  0  0  0  0  0  0  0  0  0  0
    5.6500    0.6413   -3.5964 O   0  0  0  0  0  0  0  0  0  0  0  0
    6.2038    1.4306   -4.6389 C   0  0  0  0  0  0  0  0  0  0  0  0
    7.2212    0.9143   -5.4379 N   0  0  0  0  0  0  0  0  0  0  0  0
    7.7944    1.7314   -6.5171 C   0  0  0  0  0  0  0  0  0  0  0  0
    8.1399    3.0676   -6.3429 C   0  0  0  0  0  0  0  0  0  0  0  0
    8.8187    3.7204   -7.3581 C   0  0  0  0  0  0  0  0  0  0  0  0
    9.2301    5.3935   -7.1372 Cl  0  0  0  0  0  0  0  0  0  0  0  0
    9.2089    3.0724   -8.5206 C   0  0  0  0  0  0  0  0  0  0  0  0
   10.0093    3.8001   -9.5885 C   0  0  0  0  0  0  0  0  0  0  0  0
   10.6958    4.4243  -10.5044 C   0  0  0  0  0  0  0  0  0  0  0  0
   11.4962    5.1521  -11.5722 C   0  0  0  0  0  0  0  0  0  0  0  0
   11.4905    6.5747  -11.5846 C   0  0  0  0  0  0  0  0  0  0  0  0
   11.8501    7.2550  -12.7596 C   0  0  0  0  0  0  0  0  0  0  0  0
   12.4394    6.6160  -13.7270 C   0  0  0  0  0  0  0  0  0  0  0  0
   12.7261    5.2508  -13.5949 C   0  0  0  0  0  0  0  0  0  0  0  0
   12.1068    4.5022  -12.5645 C   0  0  0  0  0  0  0  0  0  0  0  0
    8.8475    1.7356   -8.6838 C   0  0  0  0  0  0  0  0  0  0  0  0
    8.1406    1.0742   -7.6923 C   0  0  0  0  0  0  0  0  0  0  0  0
    5.7296    2.7210   -4.8624 N   0  0  0  0  0  0  0  0  0  0  0  0
    4.1427    2.4561   -3.0087 C   0  0  0  0  0  0  0  0  0  0  0  0
    3.1420    2.9814   -2.1977 C   0  0  0  0  0  0  0  0  0  0  0  0
    2.6396    2.2041   -1.1676 C   0  0  0  0  0  0  0  0  0  0  0  0
    1.4023    2.8760   -0.1503 Cl  0  0  0  0  0  0  0  0  0  0  0  0
    4.0158   -0.7155    1.0162 H   0  0  0  0  0  0  0  0  0  0  0  0
    4.4376   -0.6005   -1.6064 H   0  0  0  0  0  0  0  0  0  0  0  0
    7.8854    3.5822   -5.4399 H   0  0  0  0  0  0  0  0  0  0  0  0
   11.2147    7.1213  -10.7071 H   0  0  0  0  0  0  0  0  0  0  0  0
   11.6392    8.2993  -12.8588 H   0  0  0  0  0  0  0  0  0  0  0  0
   12.7056    7.1334  -14.6249 H   0  0  0  0  0  0  0  0  0  0  0  0
   13.4089    4.7766  -14.2685 H   0  0  0  0  0  0  0  0  0  0  0  0
   12.1283    3.4325  -12.5816 H   0  0  0  0  0  0  0  0  0  0  0  0
    9.1177    1.2174   -9.5800 H   0  0  0  0  0  0  0  0  0  0  0  0
    4.9845    3.0990   -4.2773 H   0  0  0  0  0  0  0  0  0  0  0  0
    4.5498    3.0427   -3.8056 H   0  0  0  0  0  0  0  0  0  0  0  0
    2.7668    3.9691   -2.3669 H   0  0  0  0  0  0  0  0  0  0  0  0
  1  2  2  0  0  0  0
  2  3  1  0  0  0  0
  2  4  1  0  0  0  0
  3 30  1  0  0  0  0
  4  5  1  0  0  0  0
  4 28  2  0  0  0  0
  5  6  2  0  0  0  0
  5 31  1  0  0  0  0
  6  7  1  0  0  0  0
  6 26  1  0  0  0  0
  7  8  1  0  0  0  0
  8  9  2  0  0  0  0
  8 25  1  0  0  0  0
  9 10  1  0  0  0  0
 10 11  1  0  0  0  0
 10 24  2  0  0  0  0
 11 12  2  0  0  0  0
 11 32  1  0  0  0  0
 12 13  1  0  0  0  0
 12 14  1  0  0  0  0
 14 15  1  0  0  0  0
 14 23  2  0  0  0  0
 15 16  3  0  0  0  0
 16 17  1  0  0  0  0
 17 18  1  0  0  0  0
 17 22  2  0  0  0  0
 18 19  2  0  0  0  0
 18 33  1  0  0  0  0
 19 20  1  0  0  0  0
 19 34  1  0  0  0  0
 20 21  2  0  0  0  0
 20 35  1  0  0  0  0
 21 22  1  0  0  0  0
 21 36  1  0  0  0  0
 22 37  1  0  0  0  0
 23 24  1  0  0  0  0
 23 38  1  0  0  0  0
 24 25  1  0  0  0  0
 25 39  1  0  0  0  0
 26 27  2  0  0  0  0
 26 40  1  0  0  0  0
 27 28  1  0  0  0  0
 27 41  1  0  0  0  0
 28 29  1  0  0  0  0
M  END
