
 OpenBabel03132512093D

 52 55  0  0  0  0  0  0  0  0999 V2000
    0.9941    0.0956   -0.0288 C   0  0  0  0  0  0  0  0  0  0  0  0
    0.5207    0.7851   -1.1764 O   0  0  0  0  0  0  0  0  0  0  0  0
    0.8638    2.1483   -1.3773 C   0  0  0  0  0  0  0  0  0  0  0  0
   -0.1211    3.0051   -1.7836 C   0  0  0  0  0  0  0  0  0  0  0  0
    0.1675    4.3726   -1.9905 C   0  0  0  0  0  0  0  0  0  0  0  0
   -0.8335    5.2310   -2.3682 N   0  0  0  0  0  0  0  0  0  0  0  0
   -0.4951    6.4786   -2.5440 C   0  0  0  0  0  0  0  0  0  0  0  0
    0.7551    7.0182   -2.4064 N   0  0  0  0  0  0  0  0  0  0  0  0
    1.7246    6.2065   -2.0595 C   0  0  0  0  0  0  0  0  0  0  0  0
    3.0882    6.7391   -1.9252 N   0  0  0  0  0  0  0  0  0  0  0  0
    3.3492    8.1633   -2.1786 C   0  0  0  0  0  0  0  0  0  0  0  0
    4.2716    8.5017   -3.1473 C   0  0  0  0  0  0  0  0  0  0  0  0
    4.5909    9.8291   -3.4025 C   0  0  0  0  0  0  0  0  0  0  0  0
    3.9631   10.8296   -2.6623 C   0  0  0  0  0  0  0  0  0  0  0  0
    3.0386   10.4890   -1.6930 C   0  0  0  0  0  0  0  0  0  0  0  0
    2.2224   11.7244   -0.7976 Cl  0  0  0  0  0  0  0  0  0  0  0  0
    2.7465    9.1641   -1.4606 C   0  0  0  0  0  0  0  0  0  0  0  0
    1.8270    8.8435   -0.5275 F   0  0  0  0  0  0  0  0  0  0  0  0
    1.4944    4.8237   -1.8093 C   0  0  0  0  0  0  0  0  0  0  0  0
    2.4984    3.9156   -1.4029 C   0  0  0  0  0  0  0  0  0  0  0  0
    2.1819    2.6050   -1.1855 C   0  0  0  0  0  0  0  0  0  0  0  0
    3.2595    1.6329   -0.7336 C   0  0  0  0  0  0  0  0  0  0  0  0
    4.3269    1.5808   -1.7429 N   0  0  0  0  0  0  0  0  0  0  0  0
    4.9088    2.9260   -1.9021 C   0  0  0  0  0  0  0  0  0  0  0  0
    3.8545    3.8690   -2.4369 C   0  0  0  0  0  0  0  0  0  0  0  0
    3.3283    3.3981   -3.6775 O   0  0  0  0  0  0  0  0  0  0  0  0
    2.7376    2.1107   -3.4979 C   0  0  0  0  0  0  0  0  0  0  0  0
    3.7631    1.0999   -3.0205 C   0  0  0  0  0  0  0  0  0  0  0  0
    4.8661    0.9437   -4.0546 C   0  0  0  0  0  0  0  0  0  0  0  0
    5.1222   -0.3695   -4.6635 N   0  0  0  0  0  0  0  0  0  0  0  0
    5.5670    1.9485   -4.3928 O   0  0  0  0  0  0  0  0  0  0  0  0
    0.6374   -0.9131   -0.0465 H   0  0  0  0  0  0  0  0  0  0  0  0
    0.6374    0.5846    0.8535 H   0  0  0  0  0  0  0  0  0  0  0  0
    2.0641    0.0956   -0.0288 H   0  0  0  0  0  0  0  0  0  0  0  0
   -1.1133    2.6389   -1.9455 H   0  0  0  0  0  0  0  0  0  0  0  0
   -1.2780    7.1514   -2.8257 H   0  0  0  0  0  0  0  0  0  0  0  0
    3.8531    6.1204   -1.6561 H   0  0  0  0  0  0  0  0  0  0  0  0
    4.7492    7.7282   -3.7116 H   0  0  0  0  0  0  0  0  0  0  0  0
    5.3080   10.0800   -4.1559 H   0  0  0  0  0  0  0  0  0  0  0  0
    4.1962   11.8580   -2.8440 H   0  0  0  0  0  0  0  0  0  0  0  0
    3.5041    4.2542   -1.2660 H   0  0  0  0  0  0  0  0  0  0  0  0
    3.6669    1.9609    0.1998 H   0  0  0  0  0  0  0  0  0  0  0  0
    2.8336    0.6586   -0.6142 H   0  0  0  0  0  0  0  0  0  0  0  0
    5.7295    2.8817   -2.5873 H   0  0  0  0  0  0  0  0  0  0  0  0
    5.2560    3.2794   -0.9537 H   0  0  0  0  0  0  0  0  0  0  0  0
    3.0556    3.9247   -1.7272 H   0  0  0  0  0  0  0  0  0  0  0  0
    4.2916    4.8342   -2.5860 H   0  0  0  0  0  0  0  0  0  0  0  0
    2.3489    1.7814   -4.4388 H   0  0  0  0  0  0  0  0  0  0  0  0
    1.9550    2.1838   -2.7719 H   0  0  0  0  0  0  0  0  0  0  0  0
    3.2937    0.1496   -2.8741 H   0  0  0  0  0  0  0  0  0  0  0  0
    5.8623   -0.4744   -5.3574 H   0  0  0  0  0  0  0  0  0  0  0  0
    4.5597   -1.1759   -4.3920 H   0  0  0  0  0  0  0  0  0  0  0  0
  1  2  1  0  0  0  0
  1 32  1  0  0  0  0
  1 33  1  0  0  0  0
  1 34  1  0  0  0  0
  2  3  1  0  0  0  0
  3  4  1  0  0  0  0
  3 21  2  0  0  0  0
  4  5  2  0  0  0  0
  4 35  1  0  0  0  0
  5  6  1  0  0  0  0
  5 19  1  0  0  0  0
  6  7  2  0  0  0  0
  7  8  1  0  0  0  0
  7 36  1  0  0  0  0
  8  9  2  0  0  0  0
  9 10  1  0  0  0  0
  9 19  1  0  0  0  0
 10 11  1  0  0  0  0
 10 37  1  0  0  0  0
 11 12  1  0  0  0  0
 11 17  2  0  0  0  0
 12 13  2  0  0  0  0
 12 38  1  0  0  0  0
 13 14  1  0  0  0  0
 13 39  1  0  0  0  0
 14 15  2  0  0  0  0
 14 40  1  0  0  0  0
 15 16  1  0  0  0  0
 15 17  1  0  0  0  0
 17 18  1  0  0  0  0
 19 20  2  0  0  0  0
 20 21  1  0  0  0  0
 20 41  1  0  0  0  0
 21 22  1  0  0  0  0
 22 23  1  0  0  0  0
 22 42  1  0  0  0  0
 22 43  1  0  0  0  0
 23 24  1  0  0  0  0
 23 28  1  0  0  0  0
 24 25  1  0  0  0  0
 24 44  1  0  0  0  0
 24 45  1  0  0  0  0
 25 26  1  0  0  0  0
 25 46  1  0  0  0  0
 25 47  1  0  0  0  0
 26 27  1  0  0  0  0
 27 28  1  0  0  0  0
 27 48  1  0  0  0  0
 27 49  1  0  0  0  0
 28 29  1  0  0  0  0
 28 50  1  0  0  0  0
 29 30  1  0  0  0  0
 29 31  2  0  0  0  0
 30 51  1  0  0  0  0
 30 52  1  0  0  0  0
M  END
