
 OpenBabel03132514253D

 47 50  0  0  0  0  0  0  0  0999 V2000
    0.9321   -0.0277    0.0680 N   0  0  0  0  0  0  0  0  0  0  0  0
    0.3454   -1.1859   -1.1203 S   0  0  0  0  0  0  0  0  0  0  0  0
    0.8555   -2.5843   -0.7647 O   0  0  0  0  0  0  0  0  0  0  0  0
   -1.1851   -1.1859   -1.1203 O   0  0  0  0  0  0  0  0  0  0  0  0
    0.9487   -0.7232   -2.7628 C   0  0  0  0  0  0  0  0  0  0  0  0
    1.4505   -1.6886   -3.6201 C   0  0  0  0  0  0  0  0  0  0  0  0
    2.0699   -1.1612   -4.7778 C   0  0  0  0  0  0  0  0  0  0  0  0
    1.8982    0.0697   -5.2242 C   0  0  0  0  0  0  0  0  0  0  0  0
    1.3349    0.9598   -4.3525 C   0  0  0  0  0  0  0  0  0  0  0  0
    1.2715    2.4327   -4.7225 C   0  0  0  0  0  0  0  0  0  0  0  0
    0.6999    3.3479   -3.8418 N   0  0  0  0  0  0  0  0  0  0  0  0
    0.6437    4.6517   -4.1693 N   0  0  0  0  0  0  0  0  0  0  0  0
    1.1857    5.1102   -5.4566 C   0  0  0  0  0  0  0  0  0  0  0  0
    2.0542    6.1877   -5.5144 C   0  0  0  0  0  0  0  0  0  0  0  0
    2.3401    6.6236   -6.8298 C   0  0  0  0  0  0  0  0  0  0  0  0
    2.1307    5.9062   -7.9187 C   0  0  0  0  0  0  0  0  0  0  0  0
    2.7385    6.2616   -9.2091 N   0  0  0  0  0  0  0  0  0  0  0  0
    3.6061    7.4438   -9.3121 C   0  0  0  0  0  0  0  0  0  0  0  0
    4.1316    7.7511  -10.4278 O   0  0  0  0  0  0  0  0  0  0  0  0
    3.8748    8.2987   -8.0844 C   0  0  0  0  0  0  0  0  0  0  0  0
    2.5617    8.8519   -7.5550 C   0  0  0  0  0  0  0  0  0  0  0  0
    2.3786   10.2246   -7.5287 C   0  0  0  0  0  0  0  0  0  0  0  0
    1.2767   10.6411   -6.7448 C   0  0  0  0  0  0  0  0  0  0  0  0
    0.2889    9.8523   -6.3624 C   0  0  0  0  0  0  0  0  0  0  0  0
    0.5056    8.5072   -6.4768 C   0  0  0  0  0  0  0  0  0  0  0  0
    1.6227    8.0231   -7.1139 C   0  0  0  0  0  0  0  0  0  0  0  0
    1.3183    4.8151   -7.7812 C   0  0  0  0  0  0  0  0  0  0  0  0
    0.8911    4.4039   -6.5417 C   0  0  0  0  0  0  0  0  0  0  0  0
    0.8254    0.5419   -3.1468 C   0  0  0  0  0  0  0  0  0  0  0  0
    0.5921   -0.2884    0.9936 H   0  0  0  0  0  0  0  0  0  0  0  0
    1.9521   -0.0277    0.0680 H   0  0  0  0  0  0  0  0  0  0  0  0
    1.3764   -2.7380   -3.4245 H   0  0  0  0  0  0  0  0  0  0  0  0
    2.7228   -1.8045   -5.3299 H   0  0  0  0  0  0  0  0  0  0  0  0
    2.1845    0.3551   -6.2149 H   0  0  0  0  0  0  0  0  0  0  0  0
    0.2251    5.3220   -3.5244 H   0  0  0  0  0  0  0  0  0  0  0  0
    2.4711    6.6486   -4.6434 H   0  0  0  0  0  0  0  0  0  0  0  0
    2.7546    7.6026   -6.9508 H   0  0  0  0  0  0  0  0  0  0  0  0
    2.5582    5.6880  -10.0330 H   0  0  0  0  0  0  0  0  0  0  0  0
    4.3406    7.7013   -7.3287 H   0  0  0  0  0  0  0  0  0  0  0  0
    4.5224    9.1085   -8.3484 H   0  0  0  0  0  0  0  0  0  0  0  0
    3.0128   10.9081   -8.0536 H   0  0  0  0  0  0  0  0  0  0  0  0
    1.2413   11.6663   -6.4408 H   0  0  0  0  0  0  0  0  0  0  0  0
   -0.6315   10.2448   -5.9833 H   0  0  0  0  0  0  0  0  0  0  0  0
   -0.2049    7.8217   -6.0644 H   0  0  0  0  0  0  0  0  0  0  0  0
    1.7369    6.9687   -7.2558 H   0  0  0  0  0  0  0  0  0  0  0  0
    1.0108    4.2737   -8.6514 H   0  0  0  0  0  0  0  0  0  0  0  0
    0.3246    1.2423   -2.5115 H   0  0  0  0  0  0  0  0  0  0  0  0
  1  2  1  0  0  0  0
  1 30  1  0  0  0  0
  1 31  1  0  0  0  0
  2  3  2  0  0  0  0
  2  4  2  0  0  0  0
  2  5  1  0  0  0  0
  5  6  1  0  0  0  0
  5 29  2  0  0  0  0
  6  7  2  0  0  0  0
  6 32  1  0  0  0  0
  7  8  1  0  0  0  0
  7 33  1  0  0  0  0
  8  9  2  0  0  0  0
  8 34  1  0  0  0  0
  9 10  1  0  0  0  0
  9 29  1  0  0  0  0
 10 11  2  0  0  0  0
 10 28  1  0  0  0  0
 11 12  1  0  0  0  0
 12 13  1  0  0  0  0
 12 35  1  0  0  0  0
 13 14  1  0  0  0  0
 13 28  2  0  0  0  0
 14 15  2  0  0  0  0
 14 36  1  0  0  0  0
 15 16  1  0  0  0  0
 15 37  1  0  0  0  0
 16 17  1  0  0  0  0
 16 27  2  0  0  0  0
 17 18  1  0  0  0  0
 17 38  1  0  0  0  0
 18 19  2  0  0  0  0
 18 20  1  0  0  0  0
 20 21  1  0  0  0  0
 20 39  1  0  0  0  0
 20 40  1  0  0  0  0
 21 22  1  0  0  0  0
 21 26  2  0  0  0  0
 22 23  2  0  0  0  0
 22 41  1  0  0  0  0
 23 24  1  0  0  0  0
 23 42  1  0  0  0  0
 24 25  2  0  0  0  0
 24 43  1  0  0  0  0
 25 26  1  0  0  0  0
 25 44  1  0  0  0  0
 26 45  1  0  0  0  0
 27 28  1  0  0  0  0
 27 46  1  0  0  0  0
 29 47  1  0  0  0  0
M  END
