
 OpenBabel03132514253D

 56 60  0  0  0  0  0  0  0  0999 V2000
    1.0576   -0.0616    0.0537 O   0  0  0  0  0  0  0  0  0  0  0  0
    2.3285   -0.0616    0.0537 C   0  0  0  0  0  0  0  0  0  0  0  0
    3.0385    0.7767   -0.8461 O   0  0  0  0  0  0  0  0  0  0  0  0
    3.0885   -0.9589    1.0169 C   0  0  0  0  0  0  0  0  0  0  0  0
    2.1812   -2.1789    1.1998 C   0  0  0  0  0  0  0  0  0  0  0  0
    2.9221   -3.2452    2.0160 C   0  0  0  0  0  0  0  0  0  0  0  0
    3.4945   -2.5894    3.2479 C   0  0  0  0  0  0  0  0  0  0  0  0
    3.6379   -1.2547    3.4076 C   0  0  0  0  0  0  0  0  0  0  0  0
    4.1869   -0.9990    4.6332 C   0  0  0  0  0  0  0  0  0  0  0  0
    4.5239    0.1742    5.2497 C   0  0  0  0  0  0  0  0  0  0  0  0
    5.0620    0.1755    6.4888 C   0  0  0  0  0  0  0  0  0  0  0  0
    5.4024    1.4066    7.1092 O   0  0  0  0  0  0  0  0  0  0  0  0
    5.9683    1.4128    8.4115 C   0  0  0  0  0  0  0  0  0  0  0  0
    5.0000    0.7650    9.3878 C   0  0  0  0  0  0  0  0  0  0  0  0
    5.1643   -0.6162    9.6870 C   0  0  0  0  0  0  0  0  0  0  0  0
    4.1593   -1.2913   10.3989 C   0  0  0  0  0  0  0  0  0  0  0  0
    3.2308   -0.6171   11.0112 C   0  0  0  0  0  0  0  0  0  0  0  0
    3.2373    0.7835   10.9708 C   0  0  0  0  0  0  0  0  0  0  0  0
    4.0493    1.4525   10.0230 C   0  0  0  0  0  0  0  0  0  0  0  0
    5.2864   -1.0314    7.1658 C   0  0  0  0  0  0  0  0  0  0  0  0
    4.9554   -2.2122    6.5625 C   0  0  0  0  0  0  0  0  0  0  0  0
    4.3980   -2.1938    5.2791 C   0  0  0  0  0  0  0  0  0  0  0  0
    3.9628   -3.2233    4.4171 N   0  0  0  0  0  0  0  0  0  0  0  0
    3.9920   -4.6684    4.6849 C   0  0  0  0  0  0  0  0  0  0  0  0
    2.5783   -5.2235    4.6251 C   0  0  0  0  0  0  0  0  0  0  0  0
    1.8070   -5.1193    3.4340 C   0  0  0  0  0  0  0  0  0  0  0  0
    0.4246   -5.3619    3.4849 C   0  0  0  0  0  0  0  0  0  0  0  0
   -0.0973   -5.9359    4.5288 C   0  0  0  0  0  0  0  0  0  0  0  0
   -1.8515   -6.2303    4.5973 Cl  0  0  0  0  0  0  0  0  0  0  0  0
    0.7195   -6.3229    5.5995 C   0  0  0  0  0  0  0  0  0  0  0  0
    2.0394   -5.8180    5.6909 C   0  0  0  0  0  0  0  0  0  0  0  0
    3.2453   -0.2358    2.3624 C   0  0  0  0  0  0  0  0  0  0  0  0
    4.0385    0.7767   -0.8461 H   0  0  0  0  0  0  0  0  0  0  0  0
    4.0633   -1.2193    0.6605 H   0  0  0  0  0  0  0  0  0  0  0  0
    1.9207   -2.5782    0.2419 H   0  0  0  0  0  0  0  0  0  0  0  0
    1.2910   -1.8877    1.7172 H   0  0  0  0  0  0  0  0  0  0  0  0
    3.7072   -3.6764    1.4307 H   0  0  0  0  0  0  0  0  0  0  0  0
    2.2410   -4.0193    2.3021 H   0  0  0  0  0  0  0  0  0  0  0  0
    4.3593    1.1028    4.7443 H   0  0  0  0  0  0  0  0  0  0  0  0
    6.8871    0.8645    8.4038 H   0  0  0  0  0  0  0  0  0  0  0  0
    6.1576    2.4217    8.7134 H   0  0  0  0  0  0  0  0  0  0  0  0
    6.0453   -1.1357    9.3727 H   0  0  0  0  0  0  0  0  0  0  0  0
    4.1575   -2.3606   10.4375 H   0  0  0  0  0  0  0  0  0  0  0  0
    2.4610   -1.1327   11.5465 H   0  0  0  0  0  0  0  0  0  0  0  0
    2.6322    1.3443   11.6522 H   0  0  0  0  0  0  0  0  0  0  0  0
    3.9028    2.4927    9.8194 H   0  0  0  0  0  0  0  0  0  0  0  0
    5.7134   -1.0282    8.1469 H   0  0  0  0  0  0  0  0  0  0  0  0
    5.1209   -3.1414    7.0664 H   0  0  0  0  0  0  0  0  0  0  0  0
    4.5977   -5.1553    3.9494 H   0  0  0  0  0  0  0  0  0  0  0  0
    4.4028   -4.8427    5.6574 H   0  0  0  0  0  0  0  0  0  0  0  0
    2.2758   -4.8586    2.5082 H   0  0  0  0  0  0  0  0  0  0  0  0
   -0.1994   -5.0743    2.6647 H   0  0  0  0  0  0  0  0  0  0  0  0
    0.3481   -6.9960    6.3438 H   0  0  0  0  0  0  0  0  0  0  0  0
    2.5956   -5.9119    6.6002 H   0  0  0  0  0  0  0  0  0  0  0  0
    3.9964    0.5226    2.2873 H   0  0  0  0  0  0  0  0  0  0  0  0
    2.3186    0.2240    2.6359 H   0  0  0  0  0  0  0  0  0  0  0  0
  1  2  2  0  0  0  0
  2  3  1  0  0  0  0
  2  4  1  0  0  0  0
  3 33  1  0  0  0  0
  4  5  1  0  0  0  0
  4 32  1  0  0  0  0
  4 34  1  0  0  0  0
  5  6  1  0  0  0  0
  5 35  1  0  0  0  0
  5 36  1  0  0  0  0
  6  7  1  0  0  0  0
  6 37  1  0  0  0  0
  6 38  1  0  0  0  0
  7  8  2  0  0  0  0
  7 23  1  0  0  0  0
  8  9  1  0  0  0  0
  8 32  1  0  0  0  0
  9 10  1  0  0  0  0
  9 22  2  0  0  0  0
 10 11  2  0  0  0  0
 10 39  1  0  0  0  0
 11 12  1  0  0  0  0
 11 20  1  0  0  0  0
 12 13  1  0  0  0  0
 13 14  1  0  0  0  0
 13 40  1  0  0  0  0
 13 41  1  0  0  0  0
 14 15  1  0  0  0  0
 14 19  2  0  0  0  0
 15 16  2  0  0  0  0
 15 42  1  0  0  0  0
 16 17  1  0  0  0  0
 16 43  1  0  0  0  0
 17 18  2  0  0  0  0
 17 44  1  0  0  0  0
 18 19  1  0  0  0  0
 18 45  1  0  0  0  0
 19 46  1  0  0  0  0
 20 21  2  0  0  0  0
 20 47  1  0  0  0  0
 21 22  1  0  0  0  0
 21 48  1  0  0  0  0
 22 23  1  0  0  0  0
 23 24  1  0  0  0  0
 24 25  1  0  0  0  0
 24 49  1  0  0  0  0
 24 50  1  0  0  0  0
 25 26  1  0  0  0  0
 25 31  2  0  0  0  0
 26 27  2  0  0  0  0
 26 51  1  0  0  0  0
 27 28  1  0  0  0  0
 27 52  1  0  0  0  0
 28 29  1  0  0  0  0
 28 30  2  0  0  0  0
 30 31  1  0  0  0  0
 30 53  1  0  0  0  0
 31 54  1  0  0  0  0
 32 55  1  0  0  0  0
 32 56  1  0  0  0  0
M  END
