
 OpenBabel03132514253D

 56 59  0  0  0  0  0  0  0  0999 V2000
    1.0630    0.0390   -0.0671 C   0  0  0  0  0  0  0  0  0  0  0  0
    0.5897    1.3705   -0.2073 O   0  0  0  0  0  0  0  0  0  0  0  0
    0.9327    2.3515    0.7603 C   0  0  0  0  0  0  0  0  0  0  0  0
   -0.0930    3.0513    1.3324 C   0  0  0  0  0  0  0  0  0  0  0  0
    0.1522    3.8935    2.4400 C   0  0  0  0  0  0  0  0  0  0  0  0
   -0.8880    4.5679    3.0270 N   0  0  0  0  0  0  0  0  0  0  0  0
   -0.5886    5.3295    4.0430 C   0  0  0  0  0  0  0  0  0  0  0  0
    0.6549    5.5386    4.5751 N   0  0  0  0  0  0  0  0  0  0  0  0
    1.6609    4.9114    4.0149 C   0  0  0  0  0  0  0  0  0  0  0  0
    3.0175    5.1269    4.5384 N   0  0  0  0  0  0  0  0  0  0  0  0
    3.2313    6.0351    5.6744 C   0  0  0  0  0  0  0  0  0  0  0  0
    3.9288    7.2098    5.4817 C   0  0  0  0  0  0  0  0  0  0  0  0
    4.0307    8.1584    6.4911 C   0  0  0  0  0  0  0  0  0  0  0  0
    3.4138    7.9106    7.7162 C   0  0  0  0  0  0  0  0  0  0  0  0
    2.7146    6.7338    7.9073 C   0  0  0  0  0  0  0  0  0  0  0  0
    1.9098    6.4348    9.4096 Cl  0  0  0  0  0  0  0  0  0  0  0  0
    2.6352    5.8112    6.8888 C   0  0  0  0  0  0  0  0  0  0  0  0
    1.9323    4.6760    7.0784 F   0  0  0  0  0  0  0  0  0  0  0  0
    1.4767    4.0273    2.9139 C   0  0  0  0  0  0  0  0  0  0  0  0
    2.5227    3.3045    2.2964 C   0  0  0  0  0  0  0  0  0  0  0  0
    2.2490    2.4780    1.2442 C   0  0  0  0  0  0  0  0  0  0  0  0
    3.3725    1.6896    0.5912 C   0  0  0  0  0  0  0  0  0  0  0  0
    4.3810    2.6195    0.0630 N   0  0  0  0  0  0  0  0  0  0  0  0
    5.4676    1.8570   -0.5685 C   0  0  0  0  0  0  0  0  0  0  0  0
    3.7588    3.5029   -0.9337 C   0  0  0  0  0  0  0  0  0  0  0  0
    4.2870    2.7970   -2.1719 C   0  0  0  0  0  0  0  0  0  0  0  0
    5.1420    1.6094   -2.0323 N   0  0  0  0  0  0  0  0  0  0  0  0
    3.9896    3.2337   -3.3277 O   0  0  0  0  0  0  0  0  0  0  0  0
    2.2546    3.7728   -0.7562 C   0  0  0  0  0  0  0  0  0  0  0  0
    2.5446    5.2217   -1.1801 N   0  0  0  0  0  0  0  0  0  0  0  0
    2.4365    5.4727   -2.6245 C   0  0  0  0  0  0  0  0  0  0  0  0
    3.9791    5.0040   -0.6711 C   0  0  0  0  0  0  0  0  0  0  0  0
    0.7063   -0.5540   -0.8832 H   0  0  0  0  0  0  0  0  0  0  0  0
    0.7063   -0.3711    0.8545 H   0  0  0  0  0  0  0  0  0  0  0  0
    2.1330    0.0390   -0.0671 H   0  0  0  0  0  0  0  0  0  0  0  0
   -1.0844    2.9609    0.9402 H   0  0  0  0  0  0  0  0  0  0  0  0
   -1.4014    5.8455    4.5098 H   0  0  0  0  0  0  0  0  0  0  0  0
    3.8105    4.6463    4.1135 H   0  0  0  0  0  0  0  0  0  0  0  0
    4.3994    7.3932    4.5384 H   0  0  0  0  0  0  0  0  0  0  0  0
    4.5745    9.0658    6.3306 H   0  0  0  0  0  0  0  0  0  0  0  0
    3.4815    8.6291    8.5063 H   0  0  0  0  0  0  0  0  0  0  0  0
    3.5267    3.4047    2.6524 H   0  0  0  0  0  0  0  0  0  0  0  0
    3.8255    1.0466    1.3167 H   0  0  0  0  0  0  0  0  0  0  0  0
    2.9764    1.1006   -0.2095 H   0  0  0  0  0  0  0  0  0  0  0  0
    5.0715    1.2681   -1.3692 H   0  0  0  0  0  0  0  0  0  0  0  0
    6.2017    2.5339   -0.9530 H   0  0  0  0  0  0  0  0  0  0  0  0
    5.9206    1.2140    0.1570 H   0  0  0  0  0  0  0  0  0  0  0  0
    5.4965    1.1358   -2.8632 H   0  0  0  0  0  0  0  0  0  0  0  0
    5.3808    1.2590   -1.1046 H   0  0  0  0  0  0  0  0  0  0  0  0
    1.5110    3.1781   -1.2443 H   0  0  0  0  0  0  0  0  0  0  0  0
    1.8950    3.6628    0.2455 H   0  0  0  0  0  0  0  0  0  0  0  0
    3.1338    4.8521   -3.1476 H   0  0  0  0  0  0  0  0  0  0  0  0
    1.4431    5.2477   -2.9522 H   0  0  0  0  0  0  0  0  0  0  0  0
    2.6540    6.5010   -2.8250 H   0  0  0  0  0  0  0  0  0  0  0  0
    4.3051    5.3713    0.2796 H   0  0  0  0  0  0  0  0  0  0  0  0
    4.7409    5.4567   -1.2709 H   0  0  0  0  0  0  0  0  0  0  0  0
  1  2  1  0  0  0  0
  1 33  1  0  0  0  0
  1 34  1  0  0  0  0
  1 35  1  0  0  0  0
  2  3  1  0  0  0  0
  3  4  1  0  0  0  0
  3 21  2  0  0  0  0
  4  5  2  0  0  0  0
  4 36  1  0  0  0  0
  5  6  1  0  0  0  0
  5 19  1  0  0  0  0
  6  7  2  0  0  0  0
  7  8  1  0  0  0  0
  7 37  1  0  0  0  0
  8  9  2  0  0  0  0
  9 10  1  0  0  0  0
  9 19  1  0  0  0  0
 10 11  1  0  0  0  0
 10 38  1  0  0  0  0
 11 12  1  0  0  0  0
 11 17  2  0  0  0  0
 12 13  2  0  0  0  0
 12 39  1  0  0  0  0
 13 14  1  0  0  0  0
 13 40  1  0  0  0  0
 14 15  2  0  0  0  0
 14 41  1  0  0  0  0
 15 16  1  0  0  0  0
 15 17  1  0  0  0  0
 17 18  1  0  0  0  0
 19 20  2  0  0  0  0
 20 21  1  0  0  0  0
 20 42  1  0  0  0  0
 21 22  1  0  0  0  0
 22 23  1  0  0  0  0
 22 43  1  0  0  0  0
 22 44  1  0  0  0  0
 23 24  1  0  0  0  0
 23 25  1  0  0  0  0
 24 45  1  0  0  0  0
 24 46  1  0  0  0  0
 24 47  1  0  0  0  0
 25 26  1  0  0  0  0
 25 29  1  0  0  0  0
 25 32  1  0  0  0  0
 26 27  1  0  0  0  0
 26 28  2  0  0  0  0
 27 48  1  0  0  0  0
 27 49  1  0  0  0  0
 29 30  1  0  0  0  0
 29 50  1  0  0  0  0
 29 51  1  0  0  0  0
 30 31  1  0  0  0  0
 30 32  1  0  0  0  0
 31 52  1  0  0  0  0
 31 53  1  0  0  0  0
 31 54  1  0  0  0  0
 32 55  1  0  0  0  0
 32 56  1  0  0  0  0
M  END
