
 OpenBabel03132512083D

 59 63  0  0  0  0  0  0  0  0999 V2000
    2.4920    0.0040   -0.0140 C   0  0  0  0  0  0  0  0  0  0  0  0
    0.9910   -0.0050    0.0130 C   0  0  0  0  0  0  0  0  0  0  0  0
    0.2580   -1.1970    0.0060 C   0  0  0  0  0  0  0  0  0  0  0  0
   -1.1080   -1.2020    0.0010 C   0  0  0  0  0  0  0  0  0  0  0  0
   -1.7990    0.0100   -0.0130 C   0  0  0  0  0  0  0  0  0  0  0  0
   -3.3187    0.0139   -0.0449 C   0  0  0  0  0  0  0  0  0  0  0  0
   -3.7851   -0.6773   -1.2555 N   0  0  0  0  0  0  0  0  0  0  0  0
   -4.7339   -0.1605   -2.1616 C   0  0  0  0  0  0  0  0  0  0  0  0
   -5.0427   -1.1341   -3.0472 C   0  0  0  0  0  0  0  0  0  0  0  0
   -4.3350   -2.2644   -2.7465 C   0  0  0  0  0  0  0  0  0  0  0  0
   -4.3023   -3.4982   -3.3355 C   0  0  0  0  0  0  0  0  0  0  0  0
   -3.5064   -4.4760   -2.8505 C   0  0  0  0  0  0  0  0  0  0  0  0
   -3.4884   -5.7487   -3.4801 O   0  0  0  0  0  0  0  0  0  0  0  0
   -2.6533   -6.7796   -2.9738 C   0  0  0  0  0  0  0  0  0  0  0  0
   -3.3318   -8.0804   -3.2923 C   0  0  0  0  0  0  0  0  0  0  0  0
   -2.7982   -9.3105   -2.8922 C   0  0  0  0  0  0  0  0  0  0  0  0
   -3.4022  -10.4942   -3.2086 C   0  0  0  0  0  0  0  0  0  0  0  0
   -4.5751  -10.4861   -3.9641 C   0  0  0  0  0  0  0  0  0  0  0  0
   -5.1350   -9.2907   -4.3693 C   0  0  0  0  0  0  0  0  0  0  0  0
   -4.5025   -8.1051   -4.0374 C   0  0  0  0  0  0  0  0  0  0  0  0
   -2.6981   -4.2418   -1.7294 C   0  0  0  0  0  0  0  0  0  0  0  0
   -2.7202   -3.0141   -1.1294 C   0  0  0  0  0  0  0  0  0  0  0  0
   -3.5502   -2.0131   -1.6465 C   0  0  0  0  0  0  0  0  0  0  0  0
   -6.0307   -0.9599   -4.1777 C   0  0  0  0  0  0  0  0  0  0  0  0
   -6.8873    0.2804   -3.8847 C   0  0  0  0  0  0  0  0  0  0  0  0
   -7.8053   -0.0020   -2.7066 C   0  0  0  0  0  0  0  0  0  0  0  0
   -9.0659    0.0678   -2.8522 O   0  0  0  0  0  0  0  0  0  0  0  0
   -7.2544   -0.3439   -1.4433 O   0  0  0  0  0  0  0  0  0  0  0  0
   -5.9715    1.4611   -3.5495 C   0  0  0  0  0  0  0  0  0  0  0  0
   -5.3230    1.2280   -2.1794 C   0  0  0  0  0  0  0  0  0  0  0  0
   -1.1090    1.2060    0.0020 C   0  0  0  0  0  0  0  0  0  0  0  0
    0.2750    1.1840    0.0050 C   0  0  0  0  0  0  0  0  0  0  0  0
    2.8673   -0.5130    0.8443 H   0  0  0  0  0  0  0  0  0  0  0  0
    2.8357   -0.4833   -0.9024 H   0  0  0  0  0  0  0  0  0  0  0  0
    2.8429    1.0148   -0.0032 H   0  0  0  0  0  0  0  0  0  0  0  0
    0.7818   -2.1300    0.0045 H   0  0  0  0  0  0  0  0  0  0  0  0
   -1.6438   -2.1281    0.0078 H   0  0  0  0  0  0  0  0  0  0  0  0
   -3.6949   -0.4900    0.8208 H   0  0  0  0  0  0  0  0  0  0  0  0
   -3.6727    1.0236   -0.0519 H   0  0  0  0  0  0  0  0  0  0  0  0
   -4.9149   -3.6915   -4.1912 H   0  0  0  0  0  0  0  0  0  0  0  0
   -2.5045   -6.6713   -1.9198 H   0  0  0  0  0  0  0  0  0  0  0  0
   -1.6928   -6.7400   -3.4436 H   0  0  0  0  0  0  0  0  0  0  0  0
   -1.8924   -9.3244   -2.3228 H   0  0  0  0  0  0  0  0  0  0  0  0
   -2.9791  -11.4203   -2.8796 H   0  0  0  0  0  0  0  0  0  0  0  0
   -5.0430  -11.4107   -4.2307 H   0  0  0  0  0  0  0  0  0  0  0  0
   -6.0451   -9.2811   -4.9320 H   0  0  0  0  0  0  0  0  0  0  0  0
   -4.9289   -7.1800   -4.3651 H   0  0  0  0  0  0  0  0  0  0  0  0
   -2.0689   -5.0179   -1.3465 H   0  0  0  0  0  0  0  0  0  0  0  0
   -2.1090   -2.8202   -0.2728 H   0  0  0  0  0  0  0  0  0  0  0  0
   -6.6533   -1.8263   -4.2592 H   0  0  0  0  0  0  0  0  0  0  0  0
   -5.5049   -0.8264   -5.1000 H   0  0  0  0  0  0  0  0  0  0  0  0
   -7.4771    0.5187   -4.7451 H   0  0  0  0  0  0  0  0  0  0  0  0
   -7.8583   -0.5297   -0.6682 H   0  0  0  0  0  0  0  0  0  0  0  0
   -6.5457    2.3637   -3.5248 H   0  0  0  0  0  0  0  0  0  0  0  0
   -5.2094    1.5453   -4.2958 H   0  0  0  0  0  0  0  0  0  0  0  0
   -6.0545    1.3269   -1.4048 H   0  0  0  0  0  0  0  0  0  0  0  0
   -4.5504    1.9504   -2.0177 H   0  0  0  0  0  0  0  0  0  0  0  0
   -1.6368    2.1367    0.0112 H   0  0  0  0  0  0  0  0  0  0  0  0
    0.8088    2.1113    0.0010 H   0  0  0  0  0  0  0  0  0  0  0  0
  1  2  1  0  0  0  0
  1 33  1  0  0  0  0
  1 34  1  0  0  0  0
  1 35  1  0  0  0  0
  2  3  1  0  0  0  0
  2 32  2  0  0  0  0
  3  4  2  0  0  0  0
  3 36  1  0  0  0  0
  4  5  1  0  0  0  0
  4 37  1  0  0  0  0
  5  6  1  0  0  0  0
  5 31  2  0  0  0  0
  6  7  1  0  0  0  0
  6 38  1  0  0  0  0
  6 39  1  0  0  0  0
  7  8  1  0  0  0  0
  7 23  1  0  0  0  0
  8  9  2  0  0  0  0
  8 30  1  0  0  0  0
  9 10  1  0  0  0  0
  9 24  1  0  0  0  0
 10 11  1  0  0  0  0
 10 23  2  0  0  0  0
 11 12  2  0  0  0  0
 11 40  1  0  0  0  0
 12 13  1  0  0  0  0
 12 21  1  0  0  0  0
 13 14  1  0  0  0  0
 14 15  1  0  0  0  0
 14 41  1  0  0  0  0
 14 42  1  0  0  0  0
 15 16  1  0  0  0  0
 15 20  2  0  0  0  0
 16 17  2  0  0  0  0
 16 43  1  0  0  0  0
 17 18  1  0  0  0  0
 17 44  1  0  0  0  0
 18 19  2  0  0  0  0
 18 45  1  0  0  0  0
 19 20  1  0  0  0  0
 19 46  1  0  0  0  0
 20 47  1  0  0  0  0
 21 22  2  0  0  0  0
 21 48  1  0  0  0  0
 22 23  1  0  0  0  0
 22 49  1  0  0  0  0
 24 25  1  0  0  0  0
 24 50  1  0  0  0  0
 24 51  1  0  0  0  0
 25 26  1  0  0  0  0
 25 29  1  0  0  0  0
 25 52  1  0  0  0  0
 26 27  2  0  0  0  0
 26 28  1  0  0  0  0
 28 53  1  0  0  0  0
 29 30  1  0  0  0  0
 29 54  1  0  0  0  0
 29 55  1  0  0  0  0
 30 56  1  0  0  0  0
 30 57  1  0  0  0  0
 31 32  1  0  0  0  0
 31 58  1  0  0  0  0
 32 59  1  0  0  0  0
M  END
