
 OpenBabel03132514253D

 45 48  0  0  0  0  0  0  0  0999 V2000
    0.9339    0.0256    0.0705 C   0  0  0  0  0  0  0  0  0  0  0  0
    0.4605   -0.1914    1.3916 O   0  0  0  0  0  0  0  0  0  0  0  0
    0.8036   -1.3840    2.0818 C   0  0  0  0  0  0  0  0  0  0  0  0
    2.1097   -1.8933    2.0844 C   0  0  0  0  0  0  0  0  0  0  0  0
    2.4161   -2.9538    2.8901 C   0  0  0  0  0  0  0  0  0  0  0  0
    1.4191   -3.5115    3.6981 C   0  0  0  0  0  0  0  0  0  0  0  0
    0.1447   -2.9968    3.6798 C   0  0  0  0  0  0  0  0  0  0  0  0
   -0.1466   -1.9357    2.8677 C   0  0  0  0  0  0  0  0  0  0  0  0
   -0.6294   -3.7125    4.5501 C   0  0  0  0  0  0  0  0  0  0  0  0
    0.1179   -4.6806    5.1261 C   0  0  0  0  0  0  0  0  0  0  0  0
    1.4284   -4.5853    4.6143 N   0  0  0  0  0  0  0  0  0  0  0  0
    2.5756   -5.4349    4.9649 C   0  0  0  0  0  0  0  0  0  0  0  0
    2.4369   -6.3718    5.8124 O   0  0  0  0  0  0  0  0  0  0  0  0
    3.9276   -5.1930    4.3139 C   0  0  0  0  0  0  0  0  0  0  0  0
    4.5892   -3.9427    4.4668 C   0  0  0  0  0  0  0  0  0  0  0  0
    5.6687   -3.6270    3.6257 C   0  0  0  0  0  0  0  0  0  0  0  0
    6.2307   -4.5572    2.9113 C   0  0  0  0  0  0  0  0  0  0  0  0
    7.5900   -4.1527    1.8356 Cl  0  0  0  0  0  0  0  0  0  0  0  0
    5.7673   -5.8775    2.9872 C   0  0  0  0  0  0  0  0  0  0  0  0
    4.5114   -6.1451    3.5842 C   0  0  0  0  0  0  0  0  0  0  0  0
   -0.4002   -5.6687    6.1412 C   0  0  0  0  0  0  0  0  0  0  0  0
   -1.7324   -5.1443    6.6910 C   0  0  0  0  0  0  0  0  0  0  0  0
   -2.6455   -4.7572    5.5241 C   0  0  0  0  0  0  0  0  0  0  0  0
   -2.6946   -5.8950    4.5174 C   0  0  0  0  0  0  0  0  0  0  0  0
   -3.8034   -6.4508    4.2401 O   0  0  0  0  0  0  0  0  0  0  0  0
   -1.5016   -6.3369    3.8866 O   0  0  0  0  0  0  0  0  0  0  0  0
   -2.0955   -3.4941    4.8458 C   0  0  0  0  0  0  0  0  0  0  0  0
    0.5772    0.9694   -0.2856 H   0  0  0  0  0  0  0  0  0  0  0  0
    0.5772   -0.7548   -0.5688 H   0  0  0  0  0  0  0  0  0  0  0  0
    2.0039    0.0256    0.0705 H   0  0  0  0  0  0  0  0  0  0  0  0
    2.8606   -1.4552    1.4606 H   0  0  0  0  0  0  0  0  0  0  0  0
    3.4085   -3.3537    2.9028 H   0  0  0  0  0  0  0  0  0  0  0  0
   -1.1396   -1.5375    2.8547 H   0  0  0  0  0  0  0  0  0  0  0  0
    4.2673   -3.2494    5.2156 H   0  0  0  0  0  0  0  0  0  0  0  0
    6.0290   -2.6209    3.5727 H   0  0  0  0  0  0  0  0  0  0  0  0
    6.3590   -6.6787    2.5963 H   0  0  0  0  0  0  0  0  0  0  0  0
    4.0383   -7.0957    3.4522 H   0  0  0  0  0  0  0  0  0  0  0  0
   -0.5423   -6.6254    5.6837 H   0  0  0  0  0  0  0  0  0  0  0  0
    0.3052   -5.7702    6.9393 H   0  0  0  0  0  0  0  0  0  0  0  0
   -2.2030   -5.9065    7.2762 H   0  0  0  0  0  0  0  0  0  0  0  0
   -1.5528   -4.2859    7.3040 H   0  0  0  0  0  0  0  0  0  0  0  0
   -3.6321   -4.5650    5.8909 H   0  0  0  0  0  0  0  0  0  0  0  0
   -1.5339   -7.0854    3.2243 H   0  0  0  0  0  0  0  0  0  0  0  0
   -2.6292   -3.3014    3.9387 H   0  0  0  0  0  0  0  0  0  0  0  0
   -2.2115   -2.6538    5.4980 H   0  0  0  0  0  0  0  0  0  0  0  0
  1  2  1  0  0  0  0
  1 28  1  0  0  0  0
  1 29  1  0  0  0  0
  1 30  1  0  0  0  0
  2  3  1  0  0  0  0
  3  4  1  0  0  0  0
  3  8  2  0  0  0  0
  4  5  2  0  0  0  0
  4 31  1  0  0  0  0
  5  6  1  0  0  0  0
  5 32  1  0  0  0  0
  6  7  2  0  0  0  0
  6 11  1  0  0  0  0
  7  8  1  0  0  0  0
  7  9  1  0  0  0  0
  8 33  1  0  0  0  0
  9 10  2  0  0  0  0
  9 27  1  0  0  0  0
 10 11  1  0  0  0  0
 10 21  1  0  0  0  0
 11 12  1  0  0  0  0
 12 13  2  0  0  0  0
 12 14  1  0  0  0  0
 14 15  1  0  0  0  0
 14 20  2  0  0  0  0
 15 16  2  0  0  0  0
 15 34  1  0  0  0  0
 16 17  1  0  0  0  0
 16 35  1  0  0  0  0
 17 18  1  0  0  0  0
 17 19  2  0  0  0  0
 19 20  1  0  0  0  0
 19 36  1  0  0  0  0
 20 37  1  0  0  0  0
 21 22  1  0  0  0  0
 21 38  1  0  0  0  0
 21 39  1  0  0  0  0
 22 23  1  0  0  0  0
 22 40  1  0  0  0  0
 22 41  1  0  0  0  0
 23 24  1  0  0  0  0
 23 27  1  0  0  0  0
 23 42  1  0  0  0  0
 24 25  2  0  0  0  0
 24 26  1  0  0  0  0
 26 43  1  0  0  0  0
 27 44  1  0  0  0  0
 27 45  1  0  0  0  0
M  END
