
 OpenBabel03142511373D

 55 58  0  0  0  0  0  0  0  0999 V2000
    1.0217    0.0952    0.0218 C   0  0  0  0  0  0  0  0  0  0  0  0
    0.5317   -1.1310   -0.6243 N   0  0  0  0  0  0  0  0  0  0  0  0
    0.6519   -1.4933   -2.1064 C   0  0  0  0  0  0  0  0  0  0  0  0
    1.2699   -2.7757   -2.2341 C   0  0  0  0  0  0  0  0  0  0  0  0
    0.5387   -3.8389   -1.6207 N   0  0  0  0  0  0  0  0  0  0  0  0
   -0.8023   -3.9195   -2.2174 C   0  0  0  0  0  0  0  0  0  0  0  0
   -1.5354   -2.6066   -1.9954 C   0  0  0  0  0  0  0  0  0  0  0  0
   -0.7576   -1.4754   -2.6481 C   0  0  0  0  0  0  0  0  0  0  0  0
   -0.6416   -1.7231   -4.0415 O   0  0  0  0  0  0  0  0  0  0  0  0
    0.0099   -2.8977   -4.5020 C   0  0  0  0  0  0  0  0  0  0  0  0
    0.9350   -2.7260   -5.5186 C   0  0  0  0  0  0  0  0  0  0  0  0
    1.3651   -3.9360   -6.1126 C   0  0  0  0  0  0  0  0  0  0  0  0
    1.2217   -5.1304   -5.5676 C   0  0  0  0  0  0  0  0  0  0  0  0
    1.9907   -6.3396   -6.0745 C   0  0  0  0  0  0  0  0  0  0  0  0
    3.3714   -6.2715   -5.9873 C   0  0  0  0  0  0  0  0  0  0  0  0
    4.0418   -7.2959   -6.6966 C   0  0  0  0  0  0  0  0  0  0  0  0
    5.4372   -7.1014   -6.9952 C   0  0  0  0  0  0  0  0  0  0  0  0
    6.1393   -5.8285   -6.5509 C   0  0  0  0  0  0  0  0  0  0  0  0
    7.3706   -5.6569   -6.8144 O   0  0  0  0  0  0  0  0  0  0  0  0
    5.4193   -4.8313   -5.8412 O   0  0  0  0  0  0  0  0  0  0  0  0
    6.1674   -8.1128   -7.7150 C   0  0  0  0  0  0  0  0  0  0  0  0
    4.2332   -9.5139   -7.5129 N   0  0  0  0  0  0  0  0  0  0  0  0
    3.4770   -8.4181   -7.1038 C   0  0  0  0  0  0  0  0  0  0  0  0
    2.1100   -8.4463   -7.1021 C   0  0  0  0  0  0  0  0  0  0  0  0
    1.3828   -7.4223   -6.5449 C   0  0  0  0  0  0  0  0  0  0  0  0
   -0.3904   -7.5483   -6.4530 Cl  0  0  0  0  0  0  0  0  0  0  0  0
    0.3442   -5.2207   -4.5230 C   0  0  0  0  0  0  0  0  0  0  0  0
   -0.2182   -4.0941   -3.9730 C   0  0  0  0  0  0  0  0  0  0  0  0
    0.4139   -3.5714   -0.1190 C   0  0  0  0  0  0  0  0  0  0  0  0
   -0.2726   -2.2188    0.0951 C   0  0  0  0  0  0  0  0  0  0  0  0
   -1.3377   -2.0293    0.7620 O   0  0  0  0  0  0  0  0  0  0  0  0
    0.6650    0.1341    1.0298 H   0  0  0  0  0  0  0  0  0  0  0  0
    0.6650    0.9487   -0.5160 H   0  0  0  0  0  0  0  0  0  0  0  0
    2.0917    0.0952    0.0218 H   0  0  0  0  0  0  0  0  0  0  0  0
   -0.3227   -1.5213   -2.5472 H   0  0  0  0  0  0  0  0  0  0  0  0
    1.2481   -0.7586   -2.6061 H   0  0  0  0  0  0  0  0  0  0  0  0
    2.2111   -2.7165   -1.7286 H   0  0  0  0  0  0  0  0  0  0  0  0
    1.3738   -2.9964   -3.2759 H   0  0  0  0  0  0  0  0  0  0  0  0
   -0.7149   -4.1061   -3.2674 H   0  0  0  0  0  0  0  0  0  0  0  0
   -1.3498   -4.7158   -1.7580 H   0  0  0  0  0  0  0  0  0  0  0  0
   -2.5115   -2.6653   -2.4297 H   0  0  0  0  0  0  0  0  0  0  0  0
   -1.6228   -2.4200   -0.9455 H   0  0  0  0  0  0  0  0  0  0  0  0
   -1.2737   -0.5512   -2.4918 H   0  0  0  0  0  0  0  0  0  0  0  0
    0.2185   -1.4167   -2.2138 H   0  0  0  0  0  0  0  0  0  0  0  0
    1.2919   -1.7655   -5.8267 H   0  0  0  0  0  0  0  0  0  0  0  0
    1.8397   -3.8794   -7.0699 H   0  0  0  0  0  0  0  0  0  0  0  0
    3.8844   -5.5130   -5.4338 H   0  0  0  0  0  0  0  0  0  0  0  0
    5.8812   -3.9939   -5.5489 H   0  0  0  0  0  0  0  0  0  0  0  0
    7.2041   -7.9682   -7.9369 H   0  0  0  0  0  0  0  0  0  0  0  0
    3.7683  -10.3674   -7.8223 H   0  0  0  0  0  0  0  0  0  0  0  0
    1.5993   -9.2778   -7.5411 H   0  0  0  0  0  0  0  0  0  0  0  0
    0.0918   -6.1826   -4.1281 H   0  0  0  0  0  0  0  0  0  0  0  0
   -0.8455   -4.1817   -3.1107 H   0  0  0  0  0  0  0  0  0  0  0  0
    1.3868   -3.5557    0.3260 H   0  0  0  0  0  0  0  0  0  0  0  0
   -0.1695   -4.3449    0.3352 H   0  0  0  0  0  0  0  0  0  0  0  0
  1  2  1  0  0  0  0
  1 32  1  0  0  0  0
  1 33  1  0  0  0  0
  1 34  1  0  0  0  0
  2  3  1  0  0  0  0
  2 30  1  0  0  0  0
  3  4  1  0  0  0  0
  3 35  1  0  0  0  0
  3 36  1  0  0  0  0
  4  5  1  0  0  0  0
  4 37  1  0  0  0  0
  4 38  1  0  0  0  0
  5  6  1  0  0  0  0
  5 29  1  0  0  0  0
  6  7  1  0  0  0  0
  6 39  1  0  0  0  0
  6 40  1  0  0  0  0
  7  8  1  0  0  0  0
  7 41  1  0  0  0  0
  7 42  1  0  0  0  0
  8  9  1  0  0  0  0
  8 43  1  0  0  0  0
  8 44  1  0  0  0  0
  9 10  1  0  0  0  0
 10 11  1  0  0  0  0
 10 28  2  0  0  0  0
 11 12  2  0  0  0  0
 11 45  1  0  0  0  0
 12 13  1  0  0  0  0
 12 46  1  0  0  0  0
 13 14  1  0  0  0  0
 13 27  2  0  0  0  0
 14 15  1  0  0  0  0
 14 25  2  0  0  0  0
 15 16  2  0  0  0  0
 15 47  1  0  0  0  0
 16 17  1  0  0  0  0
 16 23  1  0  0  0  0
 17 18  1  0  0  0  0
 17 21  2  0  0  0  0
 18 19  2  0  0  0  0
 18 20  1  0  0  0  0
 20 48  1  0  0  0  0
 21 22  1  0  0  0  0
 21 49  1  0  0  0  0
 22 23  1  0  0  0  0
 22 50  1  0  0  0  0
 23 24  2  0  0  0  0
 24 25  1  0  0  0  0
 24 51  1  0  0  0  0
 25 26  1  0  0  0  0
 27 28  1  0  0  0  0
 27 52  1  0  0  0  0
 28 53  1  0  0  0  0
 29 30  1  0  0  0  0
 29 54  1  0  0  0  0
 29 55  1  0  0  0  0
 30 31  2  0  0  0  0
M  END
