
 OpenBabel03132512093D

 35 37  0  0  0  0  0  0  0  0999 V2000
    0.9122   -0.0130   -0.0461 C   0  0  0  0  0  0  0  0  0  0  0  0
    0.4389   -1.1361   -0.7747 O   0  0  0  0  0  0  0  0  0  0  0  0
    0.7819   -1.2900   -2.1441 C   0  0  0  0  0  0  0  0  0  0  0  0
    1.5126   -0.4225   -2.7175 O   0  0  0  0  0  0  0  0  0  0  0  0
    0.2752   -2.4922   -2.9240 C   0  0  0  0  0  0  0  0  0  0  0  0
    1.1307   -3.3125   -3.6457 C   0  0  0  0  0  0  0  0  0  0  0  0
    0.6611   -4.5138   -4.1648 C   0  0  0  0  0  0  0  0  0  0  0  0
   -0.6633   -4.8195   -3.9564 C   0  0  0  0  0  0  0  0  0  0  0  0
   -1.5641   -3.9905   -3.2865 C   0  0  0  0  0  0  0  0  0  0  0  0
   -1.0647   -2.8123   -2.7465 C   0  0  0  0  0  0  0  0  0  0  0  0
   -2.8644   -4.6630   -3.2880 C   0  0  0  0  0  0  0  0  0  0  0  0
   -4.0922   -4.3137   -2.8660 C   0  0  0  0  0  0  0  0  0  0  0  0
   -4.3184   -2.9517   -2.2302 C   0  0  0  0  0  0  0  0  0  0  0  0
   -4.0561   -1.7650   -2.9242 C   0  0  0  0  0  0  0  0  0  0  0  0
   -4.4415   -0.5236   -2.4069 C   0  0  0  0  0  0  0  0  0  0  0  0
   -4.1142    1.0624   -3.3999 Br  0  0  0  0  0  0  0  0  0  0  0  0
   -5.0897   -0.4148   -1.1904 C   0  0  0  0  0  0  0  0  0  0  0  0
   -5.5108    0.8128   -0.7785 O   0  0  0  0  0  0  0  0  0  0  0  0
   -5.2897   -1.5912   -0.4794 C   0  0  0  0  0  0  0  0  0  0  0  0
   -6.1383   -1.4782    1.2218 Br  0  0  0  0  0  0  0  0  0  0  0  0
   -4.9209   -2.8339   -0.9790 C   0  0  0  0  0  0  0  0  0  0  0  0
   -2.6274   -5.9663   -3.9791 C   0  0  0  0  0  0  0  0  0  0  0  0
   -3.4371   -6.8685   -4.1998 O   0  0  0  0  0  0  0  0  0  0  0  0
   -1.3240   -5.9878   -4.3519 N   0  0  0  0  0  0  0  0  0  0  0  0
    0.5555   -0.0653    0.9614 H   0  0  0  0  0  0  0  0  0  0  0  0
    0.5555    0.8857   -0.5045 H   0  0  0  0  0  0  0  0  0  0  0  0
    1.9822   -0.0130   -0.0461 H   0  0  0  0  0  0  0  0  0  0  0  0
    2.1484   -3.0215   -3.8022 H   0  0  0  0  0  0  0  0  0  0  0  0
    1.3054   -5.1750   -4.7057 H   0  0  0  0  0  0  0  0  0  0  0  0
   -1.7075   -2.1560   -2.1978 H   0  0  0  0  0  0  0  0  0  0  0  0
   -4.9101   -4.9944   -2.9777 H   0  0  0  0  0  0  0  0  0  0  0  0
   -3.5520   -1.8080   -3.8670 H   0  0  0  0  0  0  0  0  0  0  0  0
   -5.3314    1.6184   -1.3431 H   0  0  0  0  0  0  0  0  0  0  0  0
   -5.1018   -3.7123   -0.3954 H   0  0  0  0  0  0  0  0  0  0  0  0
   -0.8820   -6.7566   -4.8557 H   0  0  0  0  0  0  0  0  0  0  0  0
  1  2  1  0  0  0  0
  1 25  1  0  0  0  0
  1 26  1  0  0  0  0
  1 27  1  0  0  0  0
  2  3  1  0  0  0  0
  3  4  2  0  0  0  0
  3  5  1  0  0  0  0
  5  6  1  0  0  0  0
  5 10  2  0  0  0  0
  6  7  2  0  0  0  0
  6 28  1  0  0  0  0
  7  8  1  0  0  0  0
  7 29  1  0  0  0  0
  8  9  2  0  0  0  0
  8 24  1  0  0  0  0
  9 10  1  0  0  0  0
  9 11  1  0  0  0  0
 10 30  1  0  0  0  0
 11 12  2  0  0  0  0
 11 22  1  0  0  0  0
 12 13  1  0  0  0  0
 12 31  1  0  0  0  0
 13 14  1  0  0  0  0
 13 21  2  0  0  0  0
 14 15  2  0  0  0  0
 14 32  1  0  0  0  0
 15 16  1  0  0  0  0
 15 17  1  0  0  0  0
 17 18  1  0  0  0  0
 17 19  2  0  0  0  0
 18 33  1  0  0  0  0
 19 20  1  0  0  0  0
 19 21  1  0  0  0  0
 21 34  1  0  0  0  0
 22 23  2  0  0  0  0
 22 24  1  0  0  0  0
 24 35  1  0  0  0  0
M  END
