
 OpenBabel03132512093D

 68 73  0  0  0  0  0  0  0  0999 V2000
    1.0251   -0.0595   -0.0764 C   0  0  0  0  0  0  0  0  0  0  0  0
    0.5184   -1.1298   -1.0294 C   0  0  0  0  0  0  0  0  0  0  0  0
    1.0084   -2.4455   -0.5938 N   0  0  0  0  0  0  0  0  0  0  0  0
    1.9700   -2.7477    0.3120 C   0  0  0  0  0  0  0  0  0  0  0  0
    1.9691   -4.0986    0.4196 C   0  0  0  0  0  0  0  0  0  0  0  0
    2.8684   -4.9306    1.3194 C   0  0  0  0  0  0  0  0  0  0  0  0
    3.8378   -4.2835    2.1654 C   0  0  0  0  0  0  0  0  0  0  0  0
    3.9552   -2.8482    2.1589 C   0  0  0  0  0  0  0  0  0  0  0  0
    4.8927   -2.2224    2.9771 N   0  0  0  0  0  0  0  0  0  0  0  0
    5.6710   -2.9425    3.7558 C   0  0  0  0  0  0  0  0  0  0  0  0
    6.6344   -2.5299    4.6151 N   0  0  0  0  0  0  0  0  0  0  0  0
    7.0499   -3.6410    5.2704 C   0  0  0  0  0  0  0  0  0  0  0  0
    6.3620   -4.6478    4.8050 C   0  0  0  0  0  0  0  0  0  0  0  0
    5.5455   -4.2333    3.9021 C   0  0  0  0  0  0  0  0  0  0  0  0
    1.0537   -4.5534   -0.3918 C   0  0  0  0  0  0  0  0  0  0  0  0
    0.7111   -6.0208   -0.5910 C   0  0  0  0  0  0  0  0  0  0  0  0
    0.2684   -6.7777    0.4811 C   0  0  0  0  0  0  0  0  0  0  0  0
    0.2647   -8.1713    0.2363 C   0  0  0  0  0  0  0  0  0  0  0  0
    0.3134   -8.7211   -0.9634 C   0  0  0  0  0  0  0  0  0  0  0  0
    0.6920   -7.9037   -1.9920 C   0  0  0  0  0  0  0  0  0  0  0  0
    0.9408   -8.4800   -3.3213 N   0  0  0  0  0  0  0  0  0  0  0  0
    0.7821   -9.9253   -3.5372 C   0  0  0  0  0  0  0  0  0  0  0  0
    0.9972  -10.4235   -4.6865 O   0  0  0  0  0  0  0  0  0  0  0  0
    0.3747  -10.7945   -2.4239 N   0  0  0  0  0  0  0  0  0  0  0  0
    0.1259  -10.2183   -1.0946 C   0  0  0  0  0  0  0  0  0  0  0  0
    0.5267  -10.9052    0.0393 C   0  0  0  0  0  0  0  0  0  0  0  0
   -0.1276  -10.4893    1.2229 C   0  0  0  0  0  0  0  0  0  0  0  0
   -0.7769   -9.3473    1.3579 C   0  0  0  0  0  0  0  0  0  0  0  0
   -1.1367   -8.8374    2.6335 O   0  0  0  0  0  0  0  0  0  0  0  0
   -1.8348   -7.6050    2.7343 C   0  0  0  0  0  0  0  0  0  0  0  0
   -0.9970   -6.4962    2.1186 C   0  0  0  0  0  0  0  0  0  0  0  0
    0.1854   -6.7425    1.4406 C   0  0  0  0  0  0  0  0  0  0  0  0
    0.9299   -5.5764    1.1441 C   0  0  0  0  0  0  0  0  0  0  0  0
    0.4385   -4.3507    1.1570 C   0  0  0  0  0  0  0  0  0  0  0  0
   -0.7657   -4.1848    1.7829 C   0  0  0  0  0  0  0  0  0  0  0  0
   -1.4913   -5.2677    2.2175 C   0  0  0  0  0  0  0  0  0  0  0  0
   -1.0842   -8.6822    0.2034 C   0  0  0  0  0  0  0  0  0  0  0  0
   -0.5898   -9.1032   -1.0075 C   0  0  0  0  0  0  0  0  0  0  0  0
    0.8432   -6.5515   -1.8011 C   0  0  0  0  0  0  0  0  0  0  0  0
    0.4856   -3.5712   -0.9971 N   0  0  0  0  0  0  0  0  0  0  0  0
    0.6684   -0.2638    0.9115 H   0  0  0  0  0  0  0  0  0  0  0  0
    0.6684    0.8982   -0.3934 H   0  0  0  0  0  0  0  0  0  0  0  0
    2.0951   -0.0595   -0.0764 H   0  0  0  0  0  0  0  0  0  0  0  0
   -0.5516   -1.1298   -1.0294 H   0  0  0  0  0  0  0  0  0  0  0  0
    0.8751   -0.9255   -2.0173 H   0  0  0  0  0  0  0  0  0  0  0  0
    2.6011   -2.0601    0.8354 H   0  0  0  0  0  0  0  0  0  0  0  0
    4.4708   -4.8692    2.7988 H   0  0  0  0  0  0  0  0  0  0  0  0
    3.3222   -2.2625    1.5255 H   0  0  0  0  0  0  0  0  0  0  0  0
    6.9769   -1.5776    4.7425 H   0  0  0  0  0  0  0  0  0  0  0  0
    7.8029   -3.6848    6.0292 H   0  0  0  0  0  0  0  0  0  0  0  0
    6.4622   -5.6636    5.1260 H   0  0  0  0  0  0  0  0  0  0  0  0
   -0.0426   -6.3476    1.4102 H   0  0  0  0  0  0  0  0  0  0  0  0
    0.2192   -8.8252    1.0821 H   0  0  0  0  0  0  0  0  0  0  0  0
    0.0697   -9.7509   -1.1220 H   0  0  0  0  0  0  0  0  0  0  0  0
    1.2235   -7.8769   -4.0938 H   0  0  0  0  0  0  0  0  0  0  0  0
    0.2646  -11.7974   -2.5738 H   0  0  0  0  0  0  0  0  0  0  0  0
    1.2643  -11.6802    0.0219 H   0  0  0  0  0  0  0  0  0  0  0  0
   -0.0940  -11.1456    2.0673 H   0  0  0  0  0  0  0  0  0  0  0  0
   -2.7665   -7.6792    2.2135 H   0  0  0  0  0  0  0  0  0  0  0  0
   -2.0189   -7.3827    3.7647 H   0  0  0  0  0  0  0  0  0  0  0  0
    0.5068   -7.7255    1.1660 H   0  0  0  0  0  0  0  0  0  0  0  0
    1.9629   -5.6960    0.8919 H   0  0  0  0  0  0  0  0  0  0  0  0
    0.9550   -3.5314    0.7021 H   0  0  0  0  0  0  0  0  0  0  0  0
   -1.1487   -3.1976    1.9365 H   0  0  0  0  0  0  0  0  0  0  0  0
   -2.4633   -5.1197    2.6395 H   0  0  0  0  0  0  0  0  0  0  0  0
   -1.7187   -7.8216    0.2435 H   0  0  0  0  0  0  0  0  0  0  0  0
   -0.7833   -8.5272   -1.8882 H   0  0  0  0  0  0  0  0  0  0  0  0
    1.0694   -5.9204   -2.6350 H   0  0  0  0  0  0  0  0  0  0  0  0
  1  2  1  0  0  0  0
  1 41  1  0  0  0  0
  1 42  1  0  0  0  0
  1 43  1  0  0  0  0
  2  3  1  0  0  0  0
  2 44  1  0  0  0  0
  2 45  1  0  0  0  0
  3  4  1  0  0  0  0
  3 40  1  0  0  0  0
  4  5  2  0  0  0  0
  4 46  1  0  0  0  0
  5  6  1  0  0  0  0
  5 15  1  0  0  0  0
  6  7  1  0  0  0  0
  6 14  2  0  0  0  0
  7  8  2  0  0  0  0
  7 47  1  0  0  0  0
  8  9  1  0  0  0  0
  8 48  1  0  0  0  0
  9 10  2  0  0  0  0
 10 11  1  0  0  0  0
 10 14  1  0  0  0  0
 11 12  1  0  0  0  0
 11 49  1  0  0  0  0
 12 13  2  0  0  0  0
 12 50  1  0  0  0  0
 13 14  1  0  0  0  0
 13 51  1  0  0  0  0
 15 16  1  0  0  0  0
 15 40  2  0  0  0  0
 16 17  1  0  0  0  0
 16 39  2  0  0  0  0
 17 18  2  0  0  0  0
 17 52  1  0  0  0  0
 18 19  1  0  0  0  0
 18 53  1  0  0  0  0
 19 20  2  0  0  0  0
 19 54  1  0  0  0  0
 20 21  1  0  0  0  0
 20 39  1  0  0  0  0
 21 22  1  0  0  0  0
 21 55  1  0  0  0  0
 22 23  2  0  0  0  0
 22 24  1  0  0  0  0
 24 25  1  0  0  0  0
 24 56  1  0  0  0  0
 25 26  1  0  0  0  0
 25 38  2  0  0  0  0
 26 27  2  0  0  0  0
 26 57  1  0  0  0  0
 27 28  1  0  0  0  0
 27 58  1  0  0  0  0
 28 29  1  0  0  0  0
 28 37  2  0  0  0  0
 29 30  1  0  0  0  0
 30 31  1  0  0  0  0
 30 59  1  0  0  0  0
 30 60  1  0  0  0  0
 31 32  1  0  0  0  0
 31 36  2  0  0  0  0
 32 33  2  0  0  0  0
 32 61  1  0  0  0  0
 33 34  1  0  0  0  0
 33 62  1  0  0  0  0
 34 35  2  0  0  0  0
 34 63  1  0  0  0  0
 35 36  1  0  0  0  0
 35 64  1  0  0  0  0
 36 65  1  0  0  0  0
 37 38  1  0  0  0  0
 37 66  1  0  0  0  0
 38 67  1  0  0  0  0
 39 68  1  0  0  0  0
M  END
