
 OpenBabel03132514253D

 67 72  0  0  0  0  0  0  0  0999 V2000
    1.0436   -0.0792    0.0427 C   0  0  0  0  0  0  0  0  0  0  0  0
    0.5370    1.0769   -0.8042 C   0  0  0  0  0  0  0  0  0  0  0  0
    1.0270    0.9265   -2.1819 N   0  0  0  0  0  0  0  0  0  0  0  0
    0.4403    2.2651   -3.1626 S   0  0  0  0  0  0  0  0  0  0  0  0
    1.0436    3.8268   -2.4746 C   0  0  0  0  0  0  0  0  0  0  0  0
    0.9504    2.1086   -4.5970 O   0  0  0  0  0  0  0  0  0  0  0  0
   -1.1349    2.2651   -3.1626 N   0  0  0  0  0  0  0  0  0  0  0  0
   -1.8699    3.2921   -3.9149 C   0  0  0  0  0  0  0  0  0  0  0  0
   -2.8720    3.9335   -3.2057 C   0  0  0  0  0  0  0  0  0  0  0  0
   -3.6921    4.7689   -4.0004 C   0  0  0  0  0  0  0  0  0  0  0  0
   -3.3688    5.2119   -5.2018 C   0  0  0  0  0  0  0  0  0  0  0  0
   -4.1158    6.3608   -5.8595 C   0  0  0  0  0  0  0  0  0  0  0  0
   -4.0276    7.5776   -5.2036 C   0  0  0  0  0  0  0  0  0  0  0  0
   -4.9048    8.5662   -5.7090 C   0  0  0  0  0  0  0  0  0  0  0  0
   -5.4924    8.5127   -6.8905 C   0  0  0  0  0  0  0  0  0  0  0  0
   -6.1406    9.7357   -7.5186 C   0  0  0  0  0  0  0  0  0  0  0  0
   -5.4755   10.9275   -7.7273 N   0  0  0  0  0  0  0  0  0  0  0  0
   -6.1785   12.0364   -8.2080 C   0  0  0  0  0  0  0  0  0  0  0  0
   -5.8012   13.4111   -8.5326 N   0  0  0  0  0  0  0  0  0  0  0  0
   -6.8670   14.0306   -8.9480 C   0  0  0  0  0  0  0  0  0  0  0  0
   -6.9089   15.3892   -9.3591 O   0  0  0  0  0  0  0  0  0  0  0  0
   -5.7267   16.1753   -9.3342 C   0  0  0  0  0  0  0  0  0  0  0  0
   -4.7215   15.7243  -10.1019 C   0  0  0  0  0  0  0  0  0  0  0  0
   -3.7903   14.9577   -9.2885 O   0  0  0  0  0  0  0  0  0  0  0  0
   -3.9754   15.4422   -7.8378 C   0  0  0  0  0  0  0  0  0  0  0  0
   -2.8022   16.3186   -7.4514 C   0  0  0  0  0  0  0  0  0  0  0  0
   -1.5932   15.8204   -8.0049 O   0  0  0  0  0  0  0  0  0  0  0  0
   -3.0705   17.5698   -7.9165 C   0  0  0  0  0  0  0  0  0  0  0  0
   -4.5059   17.8073   -7.9025 O   0  0  0  0  0  0  0  0  0  0  0  0
   -5.1780   16.4219   -7.9433 C   0  0  0  0  0  0  0  0  0  0  0  0
   -7.9653   13.1656   -8.9313 N   0  0  0  0  0  0  0  0  0  0  0  0
   -7.5546   11.9294   -8.4757 C   0  0  0  0  0  0  0  0  0  0  0  0
   -8.2074   10.7210   -8.2604 C   0  0  0  0  0  0  0  0  0  0  0  0
   -7.5049    9.6337   -7.7915 C   0  0  0  0  0  0  0  0  0  0  0  0
   -8.3441    8.0856   -7.5315 Cl  0  0  0  0  0  0  0  0  0  0  0  0
   -5.4864    7.2981   -7.5183 C   0  0  0  0  0  0  0  0  0  0  0  0
   -4.7588    6.2465   -7.0156 C   0  0  0  0  0  0  0  0  0  0  0  0
   -2.3261    4.5816   -5.8222 C   0  0  0  0  0  0  0  0  0  0  0  0
   -1.5596    3.6583   -5.1530 C   0  0  0  0  0  0  0  0  0  0  0  0
    0.6870   -1.0024   -0.3639 H   0  0  0  0  0  0  0  0  0  0  0  0
    0.6870    0.0302    1.0456 H   0  0  0  0  0  0  0  0  0  0  0  0
    2.1136   -0.0792    0.0427 H   0  0  0  0  0  0  0  0  0  0  0  0
   -0.5330    1.0769   -0.8042 H   0  0  0  0  0  0  0  0  0  0  0  0
    0.8936    2.0001   -0.3975 H   0  0  0  0  0  0  0  0  0  0  0  0
    2.0470    0.9265   -2.1819 H   0  0  0  0  0  0  0  0  0  0  0  0
    2.1136    3.8268   -2.4746 H   0  0  0  0  0  0  0  0  0  0  0  0
    0.6869    4.6406   -3.0708 H   0  0  0  0  0  0  0  0  0  0  0  0
    0.6870    3.9362   -1.4718 H   0  0  0  0  0  0  0  0  0  0  0  0
   -3.0131    3.8087   -2.1524 H   0  0  0  0  0  0  0  0  0  0  0  0
   -4.6402    5.0620   -3.6002 H   0  0  0  0  0  0  0  0  0  0  0  0
   -3.3570    7.7540   -4.3887 H   0  0  0  0  0  0  0  0  0  0  0  0
   -5.1059    9.4161   -5.0910 H   0  0  0  0  0  0  0  0  0  0  0  0
   -6.0788   17.0960   -9.7504 H   0  0  0  0  0  0  0  0  0  0  0  0
   -5.1180   15.0976  -10.8733 H   0  0  0  0  0  0  0  0  0  0  0  0
   -4.2097   16.5546  -10.5419 H   0  0  0  0  0  0  0  0  0  0  0  0
   -4.0857   14.6287   -7.1516 H   0  0  0  0  0  0  0  0  0  0  0  0
   -2.6925   16.3378   -6.3872 H   0  0  0  0  0  0  0  0  0  0  0  0
   -1.6695   15.7923   -9.0016 H   0  0  0  0  0  0  0  0  0  0  0  0
   -2.7092   17.6571   -8.9199 H   0  0  0  0  0  0  0  0  0  0  0  0
   -2.5855   18.2915   -7.2929 H   0  0  0  0  0  0  0  0  0  0  0  0
   -5.9425   16.3258   -7.2008 H   0  0  0  0  0  0  0  0  0  0  0  0
   -8.9157   13.4087   -9.2104 H   0  0  0  0  0  0  0  0  0  0  0  0
   -9.2553   10.6360   -8.4590 H   0  0  0  0  0  0  0  0  0  0  0  0
   -6.0564    7.1646   -8.4139 H   0  0  0  0  0  0  0  0  0  0  0  0
   -4.7100    5.3270   -7.5608 H   0  0  0  0  0  0  0  0  0  0  0  0
   -2.1039    4.8106   -6.8434 H   0  0  0  0  0  0  0  0  0  0  0  0
   -0.7048    3.2305   -5.6338 H   0  0  0  0  0  0  0  0  0  0  0  0
  1  2  1  0  0  0  0
  1 40  1  0  0  0  0
  1 41  1  0  0  0  0
  1 42  1  0  0  0  0
  2  3  1  0  0  0  0
  2 43  1  0  0  0  0
  2 44  1  0  0  0  0
  3  4  1  0  0  0  0
  3 45  1  0  0  0  0
  4  5  1  0  0  0  0
  4  6  2  0  0  0  0
  4  7  2  0  0  0  0
  5 46  1  0  0  0  0
  5 47  1  0  0  0  0
  5 48  1  0  0  0  0
  7  8  1  0  0  0  0
  8  9  1  0  0  0  0
  8 39  2  0  0  0  0
  9 10  2  0  0  0  0
  9 49  1  0  0  0  0
 10 11  1  0  0  0  0
 10 50  1  0  0  0  0
 11 12  1  0  0  0  0
 11 38  2  0  0  0  0
 12 13  1  0  0  0  0
 12 37  2  0  0  0  0
 13 14  2  0  0  0  0
 13 51  1  0  0  0  0
 14 15  1  0  0  0  0
 14 52  1  0  0  0  0
 15 16  1  0  0  0  0
 15 36  2  0  0  0  0
 16 17  1  0  0  0  0
 16 34  2  0  0  0  0
 17 18  2  0  0  0  0
 18 19  1  0  0  0  0
 18 32  1  0  0  0  0
 19 20  2  0  0  0  0
 20 21  1  0  0  0  0
 20 31  1  0  0  0  0
 21 22  1  0  0  0  0
 22 23  1  0  0  0  0
 22 30  1  0  0  0  0
 22 53  1  0  0  0  0
 23 24  1  0  0  0  0
 23 54  1  0  0  0  0
 23 55  1  0  0  0  0
 24 25  1  0  0  0  0
 25 26  1  0  0  0  0
 25 30  1  0  0  0  0
 25 56  1  0  0  0  0
 26 27  1  0  0  0  0
 26 28  1  0  0  0  0
 26 57  1  0  0  0  0
 27 58  1  0  0  0  0
 28 29  1  0  0  0  0
 28 59  1  0  0  0  0
 28 60  1  0  0  0  0
 29 30  1  0  0  0  0
 30 61  1  0  0  0  0
 31 32  1  0  0  0  0
 31 62  1  0  0  0  0
 32 33  2  0  0  0  0
 33 34  1  0  0  0  0
 33 63  1  0  0  0  0
 34 35  1  0  0  0  0
 36 37  1  0  0  0  0
 36 64  1  0  0  0  0
 37 65  1  0  0  0  0
 38 39  1  0  0  0  0
 38 66  1  0  0  0  0
 39 67  1  0  0  0  0
M  END
