
 OpenBabel03132512093D

 72 76  0  0  0  0  0  0  0  0999 V2000
    0.9754   -0.0440    0.0863 C   0  0  0  0  0  0  0  0  0  0  0  0
    0.4687   -0.7392   -1.1668 C   0  0  0  0  0  0  0  0  0  0  0  0
    0.9587   -2.1250   -1.1905 N   0  0  0  0  0  0  0  0  0  0  0  0
    0.4687   -2.7973   -2.4024 C   0  0  0  0  0  0  0  0  0  0  0  0
    0.9753   -2.0597   -3.6311 C   0  0  0  0  0  0  0  0  0  0  0  0
    2.4287   -2.1250   -1.1905 C   0  0  0  0  0  0  0  0  0  0  0  0
    2.9354   -1.3873   -2.4191 C   0  0  0  0  0  0  0  0  0  0  0  0
    2.4454   -0.0016   -2.3954 N   0  0  0  0  0  0  0  0  0  0  0  0
    3.4006    1.1156   -2.3763 C   0  0  0  0  0  0  0  0  0  0  0  0
    2.9770    2.3136   -2.3559 O   0  0  0  0  0  0  0  0  0  0  0  0
    4.8950    0.8378   -2.3811 C   0  0  0  0  0  0  0  0  0  0  0  0
    5.5485   -0.0672   -3.1803 C   0  0  0  0  0  0  0  0  0  0  0  0
    5.0430   -0.9758   -4.2472 C   0  0  0  0  0  0  0  0  0  0  0  0
    6.8711   -0.0209   -2.8522 N   0  0  0  0  0  0  0  0  0  0  0  0
    7.0896    0.9144   -1.8697 C   0  0  0  0  0  0  0  0  0  0  0  0
    8.4310    1.2662   -1.2474 C   0  0  0  0  0  0  0  0  0  0  0  0
    9.4235    1.7361   -2.0232 C   0  0  0  0  0  0  0  0  0  0  0  0
    9.2153    1.9731   -3.4836 C   0  0  0  0  0  0  0  0  0  0  0  0
    8.2089    1.7418   -4.1559 O   0  0  0  0  0  0  0  0  0  0  0  0
   10.3586    2.5206   -3.9648 N   0  0  0  0  0  0  0  0  0  0  0  0
   11.3201    2.6561   -2.9573 C   0  0  0  0  0  0  0  0  0  0  0  0
   10.7958    2.1714   -1.7582 C   0  0  0  0  0  0  0  0  0  0  0  0
   11.6408    2.1504   -0.6562 C   0  0  0  0  0  0  0  0  0  0  0  0
   12.9356    2.6386   -0.7772 C   0  0  0  0  0  0  0  0  0  0  0  0
   13.4063    3.1669   -1.9709 C   0  0  0  0  0  0  0  0  0  0  0  0
   12.5897    3.1655   -3.0962 C   0  0  0  0  0  0  0  0  0  0  0  0
   13.0816    3.7064   -4.4289 C   0  0  0  0  0  0  0  0  0  0  0  0
   14.0767    3.1332   -5.1770 C   0  0  0  0  0  0  0  0  0  0  0  0
   14.2117    3.9276   -6.7241 S   0  0  0  0  0  0  0  0  0  0  0  0
   12.9218    4.9813   -6.2561 C   0  0  0  0  0  0  0  0  0  0  0  0
   12.3813    6.0721   -7.1664 C   0  0  0  0  0  0  0  0  0  0  0  0
   11.7456    5.6023   -8.3038 C   0  0  0  0  0  0  0  0  0  0  0  0
   11.3860    6.6183   -9.2205 C   0  0  0  0  0  0  0  0  0  0  0  0
   11.3060    7.9023   -8.9221 C   0  0  0  0  0  0  0  0  0  0  0  0
   11.8948    8.2923   -7.7513 C   0  0  0  0  0  0  0  0  0  0  0  0
   12.3869    7.3652   -6.8647 C   0  0  0  0  0  0  0  0  0  0  0  0
   12.4514    4.7648   -5.0619 N   0  0  0  0  0  0  0  0  0  0  0  0
    5.8765    1.4738   -1.5519 C   0  0  0  0  0  0  0  0  0  0  0  0
    5.6056    2.5219   -0.5023 C   0  0  0  0  0  0  0  0  0  0  0  0
    0.6187   -0.5633    0.9512 H   0  0  0  0  0  0  0  0  0  0  0  0
    0.6187    0.9646    0.1036 H   0  0  0  0  0  0  0  0  0  0  0  0
    2.0454   -0.0440    0.0863 H   0  0  0  0  0  0  0  0  0  0  0  0
   -0.6013   -0.7392   -1.1668 H   0  0  0  0  0  0  0  0  0  0  0  0
    0.8254   -0.2200   -2.0317 H   0  0  0  0  0  0  0  0  0  0  0  0
    0.8253   -3.8060   -2.4197 H   0  0  0  0  0  0  0  0  0  0  0  0
   -0.6013   -2.7973   -2.4024 H   0  0  0  0  0  0  0  0  0  0  0  0
    2.0453   -2.0597   -3.6311 H   0  0  0  0  0  0  0  0  0  0  0  0
    0.6187   -2.5491   -4.5132 H   0  0  0  0  0  0  0  0  0  0  0  0
    0.6187   -1.0510   -3.6138 H   0  0  0  0  0  0  0  0  0  0  0  0
    2.7853   -1.6356   -0.3084 H   0  0  0  0  0  0  0  0  0  0  0  0
    2.7853   -3.1336   -1.2078 H   0  0  0  0  0  0  0  0  0  0  0  0
    4.0054   -1.3873   -2.4191 H   0  0  0  0  0  0  0  0  0  0  0  0
    2.5787   -1.8767   -3.3013 H   0  0  0  0  0  0  0  0  0  0  0  0
    1.4425    0.1848   -2.3923 H   0  0  0  0  0  0  0  0  0  0  0  0
    4.3183   -1.6448   -3.8321 H   0  0  0  0  0  0  0  0  0  0  0  0
    4.5896   -0.3963   -5.0241 H   0  0  0  0  0  0  0  0  0  0  0  0
    5.8579   -1.5390   -4.6517 H   0  0  0  0  0  0  0  0  0  0  0  0
    7.5962   -0.5993   -3.2765 H   0  0  0  0  0  0  0  0  0  0  0  0
    8.5849    1.1403   -0.1960 H   0  0  0  0  0  0  0  0  0  0  0  0
   10.4996    2.7980   -4.9361 H   0  0  0  0  0  0  0  0  0  0  0  0
   11.2969    1.7610    0.2793 H   0  0  0  0  0  0  0  0  0  0  0  0
   13.5865    2.6065    0.0715 H   0  0  0  0  0  0  0  0  0  0  0  0
   14.3943    3.5740   -2.0251 H   0  0  0  0  0  0  0  0  0  0  0  0
   14.6853    2.3135   -4.8570 H   0  0  0  0  0  0  0  0  0  0  0  0
   11.5447    4.5652   -8.4738 H   0  0  0  0  0  0  0  0  0  0  0  0
   11.1634    6.3260  -10.2255 H   0  0  0  0  0  0  0  0  0  0  0  0
   10.8072    8.5998   -9.5620 H   0  0  0  0  0  0  0  0  0  0  0  0
   11.9734    9.3346   -7.5223 H   0  0  0  0  0  0  0  0  0  0  0  0
   12.7782    7.6881   -5.9226 H   0  0  0  0  0  0  0  0  0  0  0  0
    5.1495    3.3750   -0.9596 H   0  0  0  0  0  0  0  0  0  0  0  0
    4.9480    2.1212    0.2405 H   0  0  0  0  0  0  0  0  0  0  0  0
    6.5271    2.8133   -0.0431 H   0  0  0  0  0  0  0  0  0  0  0  0
  1  2  1  0  0  0  0
  1 40  1  0  0  0  0
  1 41  1  0  0  0  0
  1 42  1  0  0  0  0
  2  3  1  0  0  0  0
  2 43  1  0  0  0  0
  2 44  1  0  0  0  0
  3  4  1  0  0  0  0
  3  6  1  0  0  0  0
  4  5  1  0  0  0  0
  4 45  1  0  0  0  0
  4 46  1  0  0  0  0
  5 47  1  0  0  0  0
  5 48  1  0  0  0  0
  5 49  1  0  0  0  0
  6  7  1  0  0  0  0
  6 50  1  0  0  0  0
  6 51  1  0  0  0  0
  7  8  1  0  0  0  0
  7 52  1  0  0  0  0
  7 53  1  0  0  0  0
  8  9  1  0  0  0  0
  8 54  1  0  0  0  0
  9 10  2  0  0  0  0
  9 11  1  0  0  0  0
 11 12  2  0  0  0  0
 11 38  1  0  0  0  0
 12 13  1  0  0  0  0
 12 14  1  0  0  0  0
 13 55  1  0  0  0  0
 13 56  1  0  0  0  0
 13 57  1  0  0  0  0
 14 15  1  0  0  0  0
 14 58  1  0  0  0  0
 15 16  1  0  0  0  0
 15 38  2  0  0  0  0
 16 17  2  0  0  0  0
 16 59  1  0  0  0  0
 17 18  1  0  0  0  0
 17 22  1  0  0  0  0
 18 19  2  0  0  0  0
 18 20  1  0  0  0  0
 20 21  1  0  0  0  0
 20 60  1  0  0  0  0
 21 22  1  0  0  0  0
 21 26  2  0  0  0  0
 22 23  2  0  0  0  0
 23 24  1  0  0  0  0
 23 61  1  0  0  0  0
 24 25  2  0  0  0  0
 24 62  1  0  0  0  0
 25 26  1  0  0  0  0
 25 63  1  0  0  0  0
 26 27  1  0  0  0  0
 27 28  2  0  0  0  0
 27 37  1  0  0  0  0
 28 29  1  0  0  0  0
 28 64  1  0  0  0  0
 29 30  1  0  0  0  0
 30 31  1  0  0  0  0
 30 37  2  0  0  0  0
 31 32  1  0  0  0  0
 31 36  2  0  0  0  0
 32 33  2  0  0  0  0
 32 65  1  0  0  0  0
 33 34  1  0  0  0  0
 33 66  1  0  0  0  0
 34 35  2  0  0  0  0
 34 67  1  0  0  0  0
 35 36  1  0  0  0  0
 35 68  1  0  0  0  0
 36 69  1  0  0  0  0
 38 39  1  0  0  0  0
 39 70  1  0  0  0  0
 39 71  1  0  0  0  0
 39 72  1  0  0  0  0
M  END
