
 OpenBabel03132512083D

 55 58  0  0  0  0  0  0  0  0999 V2000
    0.9398   -0.0148   -0.0785 C   0  0  0  0  0  0  0  0  0  0  0  0
    0.4498    0.8064   -1.1950 N   0  0  0  0  0  0  0  0  0  0  0  0
   -0.3264    2.1214   -1.0926 C   0  0  0  0  0  0  0  0  0  0  0  0
    0.4236    3.1664   -1.7155 C   0  0  0  0  0  0  0  0  0  0  0  0
    0.6721    2.9561   -3.1067 N   0  0  0  0  0  0  0  0  0  0  0  0
   -0.6073    2.8284   -3.8193 C   0  0  0  0  0  0  0  0  0  0  0  0
   -1.3835    1.6477   -3.2592 C   0  0  0  0  0  0  0  0  0  0  0  0
   -1.6480    1.8714   -1.7792 C   0  0  0  0  0  0  0  0  0  0  0  0
   -2.4058    3.0600   -1.6082 O   0  0  0  0  0  0  0  0  0  0  0  0
   -1.8866    4.3036   -2.0556 C   0  0  0  0  0  0  0  0  0  0  0  0
   -1.9030    5.4468   -1.2737 C   0  0  0  0  0  0  0  0  0  0  0  0
   -1.5651    6.6272   -1.9769 C   0  0  0  0  0  0  0  0  0  0  0  0
   -0.9440    6.6531   -3.1421 C   0  0  0  0  0  0  0  0  0  0  0  0
   -0.3093    7.9238   -3.6833 C   0  0  0  0  0  0  0  0  0  0  0  0
    0.7356    8.5741   -3.0479 C   0  0  0  0  0  0  0  0  0  0  0  0
    1.0268    9.8508   -3.5838 C   0  0  0  0  0  0  0  0  0  0  0  0
    1.8048   10.7548   -2.7765 C   0  0  0  0  0  0  0  0  0  0  0  0
    2.2832   10.3241   -1.3995 C   0  0  0  0  0  0  0  0  0  0  0  0
    2.9697   11.1218   -0.6871 O   0  0  0  0  0  0  0  0  0  0  0  0
    1.9629    9.0306   -0.9090 O   0  0  0  0  0  0  0  0  0  0  0  0
    2.1297   12.0667   -3.2739 C   0  0  0  0  0  0  0  0  0  0  0  0
    1.1976   11.3930   -5.3768 N   0  0  0  0  0  0  0  0  0  0  0  0
    0.6347   10.2713   -4.7727 C   0  0  0  0  0  0  0  0  0  0  0  0
   -0.3535    9.5463   -5.3787 C   0  0  0  0  0  0  0  0  0  0  0  0
   -0.7830    8.3544   -4.8467 C   0  0  0  0  0  0  0  0  0  0  0  0
   -1.9852    7.3789   -5.7250 Cl  0  0  0  0  0  0  0  0  0  0  0  0
   -0.9026    5.4753   -3.8354 C   0  0  0  0  0  0  0  0  0  0  0  0
   -1.3354    4.3033   -3.2637 C   0  0  0  0  0  0  0  0  0  0  0  0
    1.4887    1.6748   -3.2905 C   0  0  0  0  0  0  0  0  0  0  0  0
    0.7262    0.4997   -2.6705 C   0  0  0  0  0  0  0  0  0  0  0  0
    0.3788   -0.5590   -3.2816 O   0  0  0  0  0  0  0  0  0  0  0  0
    0.5832   -1.0174   -0.1898 H   0  0  0  0  0  0  0  0  0  0  0  0
    0.5832    0.3901    0.8455 H   0  0  0  0  0  0  0  0  0  0  0  0
    2.0098   -0.0148   -0.0785 H   0  0  0  0  0  0  0  0  0  0  0  0
   -1.2708    2.0177   -1.5849 H   0  0  0  0  0  0  0  0  0  0  0  0
   -0.4861    2.3622   -0.0624 H   0  0  0  0  0  0  0  0  0  0  0  0
    1.3778    3.1920   -1.2320 H   0  0  0  0  0  0  0  0  0  0  0  0
   -0.1198    4.0816   -1.6058 H   0  0  0  0  0  0  0  0  0  0  0  0
   -1.1783    3.7241   -3.6904 H   0  0  0  0  0  0  0  0  0  0  0  0
   -0.4211    2.6710   -4.8612 H   0  0  0  0  0  0  0  0  0  0  0  0
   -2.3148    1.5547   -3.7779 H   0  0  0  0  0  0  0  0  0  0  0  0
   -0.8125    0.7520   -3.3881 H   0  0  0  0  0  0  0  0  0  0  0  0
   -2.1945    1.0402   -1.3850 H   0  0  0  0  0  0  0  0  0  0  0  0
   -0.7168    1.9643   -1.2605 H   0  0  0  0  0  0  0  0  0  0  0  0
   -2.1490    5.4381   -0.2324 H   0  0  0  0  0  0  0  0  0  0  0  0
   -1.8312    7.5641   -1.5338 H   0  0  0  0  0  0  0  0  0  0  0  0
    1.2738    8.1494   -2.2264 H   0  0  0  0  0  0  0  0  0  0  0  0
    2.2776    8.7472   -0.0031 H   0  0  0  0  0  0  0  0  0  0  0  0
    2.7077   12.7383   -2.6741 H   0  0  0  0  0  0  0  0  0  0  0  0
    0.8739   11.6935   -6.2962 H   0  0  0  0  0  0  0  0  0  0  0  0
   -0.7988    9.9122   -6.2802 H   0  0  0  0  0  0  0  0  0  0  0  0
   -0.5277    5.4663   -4.8375 H   0  0  0  0  0  0  0  0  0  0  0  0
   -1.2273    3.3819   -3.7969 H   0  0  0  0  0  0  0  0  0  0  0  0
    2.4387    1.7813   -2.8098 H   0  0  0  0  0  0  0  0  0  0  0  0
    1.6397    1.4930   -4.3341 H   0  0  0  0  0  0  0  0  0  0  0  0
  1  2  1  0  0  0  0
  1 32  1  0  0  0  0
  1 33  1  0  0  0  0
  1 34  1  0  0  0  0
  2  3  1  0  0  0  0
  2 30  1  0  0  0  0
  3  4  1  0  0  0  0
  3 35  1  0  0  0  0
  3 36  1  0  0  0  0
  4  5  1  0  0  0  0
  4 37  1  0  0  0  0
  4 38  1  0  0  0  0
  5  6  1  0  0  0  0
  5 29  1  0  0  0  0
  6  7  1  0  0  0  0
  6 39  1  0  0  0  0
  6 40  1  0  0  0  0
  7  8  1  0  0  0  0
  7 41  1  0  0  0  0
  7 42  1  0  0  0  0
  8  9  1  0  0  0  0
  8 43  1  0  0  0  0
  8 44  1  0  0  0  0
  9 10  1  0  0  0  0
 10 11  1  0  0  0  0
 10 28  2  0  0  0  0
 11 12  2  0  0  0  0
 11 45  1  0  0  0  0
 12 13  1  0  0  0  0
 12 46  1  0  0  0  0
 13 14  1  0  0  0  0
 13 27  2  0  0  0  0
 14 15  1  0  0  0  0
 14 25  2  0  0  0  0
 15 16  2  0  0  0  0
 15 47  1  0  0  0  0
 16 17  1  0  0  0  0
 16 23  1  0  0  0  0
 17 18  1  0  0  0  0
 17 21  2  0  0  0  0
 18 19  2  0  0  0  0
 18 20  1  0  0  0  0
 20 48  1  0  0  0  0
 21 22  1  0  0  0  0
 21 49  1  0  0  0  0
 22 23  1  0  0  0  0
 22 50  1  0  0  0  0
 23 24  2  0  0  0  0
 24 25  1  0  0  0  0
 24 51  1  0  0  0  0
 25 26  1  0  0  0  0
 27 28  1  0  0  0  0
 27 52  1  0  0  0  0
 28 53  1  0  0  0  0
 29 30  1  0  0  0  0
 29 54  1  0  0  0  0
 29 55  1  0  0  0  0
 30 31  2  0  0  0  0
M  END
