
 OpenBabel03132514253D

 57 62  0  0  0  0  0  0  0  0999 V2000
    0.9607   -0.0446    0.0804 C   0  0  0  0  0  0  0  0  0  0  0  0
    0.3574    0.0853    1.7819 S   0  0  0  0  0  0  0  0  0  0  0  0
    0.9607   -1.3233    2.7452 C   0  0  0  0  0  0  0  0  0  0  0  0
    0.8219   -2.5840    2.1886 C   0  0  0  0  0  0  0  0  0  0  0  0
    0.8691   -3.6362    3.1335 C   0  0  0  0  0  0  0  0  0  0  0  0
    1.3512   -3.5224    4.3577 C   0  0  0  0  0  0  0  0  0  0  0  0
    1.5298   -2.2500    4.8251 C   0  0  0  0  0  0  0  0  0  0  0  0
    1.3746   -1.1647    3.9969 C   0  0  0  0  0  0  0  0  0  0  0  0
    1.6696    0.1843    4.5011 N   0  0  0  0  0  0  0  0  0  0  0  0
    2.1283    0.3675    5.8857 C   0  0  0  0  0  0  0  0  0  0  0  0
    3.2750   -0.2235    6.3076 N   0  0  0  0  0  0  0  0  0  0  0  0
    3.7135   -0.0806    7.6347 C   0  0  0  0  0  0  0  0  0  0  0  0
    4.9637   -0.7244    8.0630 N   0  0  0  0  0  0  0  0  0  0  0  0
    5.3738   -1.7665    9.1188 C   0  0  0  0  0  0  0  0  0  0  0  0
    6.5794   -2.0684    8.2279 C   0  0  0  0  0  0  0  0  0  0  0  0
    7.9008   -2.5609    8.8224 C   0  0  0  0  0  0  0  0  0  0  0  0
    8.1263   -3.2939    7.4871 N   0  0  0  0  0  0  0  0  0  0  0  0
    6.5977   -3.2891    7.3075 C   0  0  0  0  0  0  0  0  0  0  0  0
    6.4485   -0.6531    7.6621 C   0  0  0  0  0  0  0  0  0  0  0  0
    2.9777    0.6614    8.5419 N   0  0  0  0  0  0  0  0  0  0  0  0
    1.7928    1.2845    8.1260 C   0  0  0  0  0  0  0  0  0  0  0  0
    1.0249    2.0513    9.0242 C   0  0  0  0  0  0  0  0  0  0  0  0
    1.4665    2.2118   10.4171 N   0  0  0  0  0  0  0  0  0  0  0  0
    0.6654    3.0119   11.3547 C   0  0  0  0  0  0  0  0  0  0  0  0
    0.2240    2.1382   12.5175 C   0  0  0  0  0  0  0  0  0  0  0  0
   -1.0546    1.3080   12.3875 C   0  0  0  0  0  0  0  0  0  0  0  0
    0.3094    0.6137   12.4110 C   0  0  0  0  0  0  0  0  0  0  0  0
   -0.1217    2.6416    8.6045 N   0  0  0  0  0  0  0  0  0  0  0  0
   -0.5611    2.4999    7.2754 C   0  0  0  0  0  0  0  0  0  0  0  0
    0.1717    1.7523    6.3677 N   0  0  0  0  0  0  0  0  0  0  0  0
    1.3600    1.1342    6.7829 C   0  0  0  0  0  0  0  0  0  0  0  0
    0.6040    0.7881   -0.4891 H   0  0  0  0  0  0  0  0  0  0  0  0
    0.6040   -0.9541   -0.3560 H   0  0  0  0  0  0  0  0  0  0  0  0
    2.0307   -0.0446    0.0804 H   0  0  0  0  0  0  0  0  0  0  0  0
    0.6909   -2.7474    1.1393 H   0  0  0  0  0  0  0  0  0  0  0  0
    0.4876   -4.5904    2.8354 H   0  0  0  0  0  0  0  0  0  0  0  0
    1.5893   -4.3799    4.9518 H   0  0  0  0  0  0  0  0  0  0  0  0
    1.7941   -2.0972    5.8506 H   0  0  0  0  0  0  0  0  0  0  0  0
    1.5560    0.9932    3.8903 H   0  0  0  0  0  0  0  0  0  0  0  0
    5.4799   -1.5162   10.1537 H   0  0  0  0  0  0  0  0  0  0  0  0
    4.6883   -2.5795    9.2370 H   0  0  0  0  0  0  0  0  0  0  0  0
    8.6258   -1.8894    9.2327 H   0  0  0  0  0  0  0  0  0  0  0  0
    7.7993   -3.2004    9.6742 H   0  0  0  0  0  0  0  0  0  0  0  0
    8.6390   -2.7568    6.7877 H   0  0  0  0  0  0  0  0  0  0  0  0
    5.9998   -4.1554    7.4998 H   0  0  0  0  0  0  0  0  0  0  0  0
    6.2637   -3.1029    6.3081 H   0  0  0  0  0  0  0  0  0  0  0  0
    6.7583   -0.4068    6.6680 H   0  0  0  0  0  0  0  0  0  0  0  0
    7.0177    0.0913    8.1785 H   0  0  0  0  0  0  0  0  0  0  0  0
    2.3288    1.7679   10.7331 H   0  0  0  0  0  0  0  0  0  0  0  0
    1.2548    3.8253   11.7233 H   0  0  0  0  0  0  0  0  0  0  0  0
   -0.1963    3.3959   10.8498 H   0  0  0  0  0  0  0  0  0  0  0  0
    0.5930    2.8649   13.2108 H   0  0  0  0  0  0  0  0  0  0  0  0
   -1.9591    1.2182   12.9522 H   0  0  0  0  0  0  0  0  0  0  0  0
   -1.6233    1.3397   11.4817 H   0  0  0  0  0  0  0  0  0  0  0  0
    0.8204   -0.0726   11.7685 H   0  0  0  0  0  0  0  0  0  0  0  0
    0.5998    0.0333   13.2617 H   0  0  0  0  0  0  0  0  0  0  0  0
   -1.4685    2.9733    6.9631 H   0  0  0  0  0  0  0  0  0  0  0  0
  1  2  1  0  0  0  0
  1 32  1  0  0  0  0
  1 33  1  0  0  0  0
  1 34  1  0  0  0  0
  2  3  1  0  0  0  0
  3  4  1  0  0  0  0
  3  8  2  0  0  0  0
  4  5  2  0  0  0  0
  4 35  1  0  0  0  0
  5  6  1  0  0  0  0
  5 36  1  0  0  0  0
  6  7  2  0  0  0  0
  6 37  1  0  0  0  0
  7  8  1  0  0  0  0
  7 38  1  0  0  0  0
  8  9  1  0  0  0  0
  9 10  1  0  0  0  0
  9 39  1  0  0  0  0
 10 11  1  0  0  0  0
 10 31  2  0  0  0  0
 11 12  2  0  0  0  0
 12 13  1  0  0  0  0
 12 20  1  0  0  0  0
 13 14  1  0  0  0  0
 13 19  1  0  0  0  0
 14 15  1  0  0  0  0
 14 40  1  0  0  0  0
 14 41  1  0  0  0  0
 15 16  1  0  0  0  0
 15 18  1  0  0  0  0
 15 19  1  0  0  0  0
 16 17  1  0  0  0  0
 16 42  1  0  0  0  0
 16 43  1  0  0  0  0
 17 18  1  0  0  0  0
 17 44  1  0  0  0  0
 18 45  1  0  0  0  0
 18 46  1  0  0  0  0
 19 47  1  0  0  0  0
 19 48  1  0  0  0  0
 20 21  2  0  0  0  0
 21 22  1  0  0  0  0
 21 31  1  0  0  0  0
 22 23  1  0  0  0  0
 22 28  2  0  0  0  0
 23 24  1  0  0  0  0
 23 49  1  0  0  0  0
 24 25  1  0  0  0  0
 24 50  1  0  0  0  0
 24 51  1  0  0  0  0
 25 26  1  0  0  0  0
 25 27  1  0  0  0  0
 25 52  1  0  0  0  0
 26 27  1  0  0  0  0
 26 53  1  0  0  0  0
 26 54  1  0  0  0  0
 27 55  1  0  0  0  0
 27 56  1  0  0  0  0
 28 29  1  0  0  0  0
 29 30  2  0  0  0  0
 29 57  1  0  0  0  0
 30 31  1  0  0  0  0
M  END
