
 OpenBabel03132512093D

 37 40  0  0  0  0  0  0  0  0999 V2000
    0.9804   -0.0726   -0.0659 C   0  0  0  0  0  0  0  0  0  0  0  0
    0.4737    1.1467   -0.8190 C   0  0  0  0  0  0  0  0  0  0  0  0
    0.9804    1.1042   -2.2514 C   0  0  0  0  0  0  0  0  0  0  0  0
    1.2613    2.1710   -2.9851 N   0  0  0  0  0  0  0  0  0  0  0  0
    1.6780    1.7661   -4.1839 N   0  0  0  0  0  0  0  0  0  0  0  0
    2.1081    2.4133   -5.3612 N   0  0  0  0  0  0  0  0  0  0  0  0
    2.4728    1.6716   -6.4295 C   0  0  0  0  0  0  0  0  0  0  0  0
    2.4290    0.3136   -6.4013 C   0  0  0  0  0  0  0  0  0  0  0  0
    2.0305   -0.3610   -5.2998 C   0  0  0  0  0  0  0  0  0  0  0  0
    1.6406    0.3436   -4.1592 C   0  0  0  0  0  0  0  0  0  0  0  0
    1.2002    0.0013   -2.9377 C   0  0  0  0  0  0  0  0  0  0  0  0
    0.9908   -1.4171   -2.4329 C   0  0  0  0  0  0  0  0  0  0  0  0
   -0.2652   -1.9041   -2.0878 C   0  0  0  0  0  0  0  0  0  0  0  0
   -0.4582   -3.2980   -2.2130 C   0  0  0  0  0  0  0  0  0  0  0  0
    0.6400   -4.1027   -1.9146 N   0  0  0  0  0  0  0  0  0  0  0  0
    1.8431   -3.5765   -2.0043 C   0  0  0  0  0  0  0  0  0  0  0  0
    3.0209   -4.3989   -1.6921 N   0  0  0  0  0  0  0  0  0  0  0  0
    2.8511   -5.8004   -1.2825 C   0  0  0  0  0  0  0  0  0  0  0  0
    1.3963   -6.1885   -1.0105 C   0  0  0  0  0  0  0  0  0  0  0  0
    2.1957   -6.9241   -2.0890 C   0  0  0  0  0  0  0  0  0  0  0  0
    2.0140   -2.2434   -2.3934 N   0  0  0  0  0  0  0  0  0  0  0  0
    0.6237   -0.9608   -0.5442 H   0  0  0  0  0  0  0  0  0  0  0  0
    0.6237   -0.0427    0.9424 H   0  0  0  0  0  0  0  0  0  0  0  0
    2.0504   -0.0726   -0.0659 H   0  0  0  0  0  0  0  0  0  0  0  0
   -0.5963    1.1467   -0.8190 H   0  0  0  0  0  0  0  0  0  0  0  0
    0.8304    2.0349   -0.3407 H   0  0  0  0  0  0  0  0  0  0  0  0
    2.8039    2.1651   -7.3193 H   0  0  0  0  0  0  0  0  0  0  0  0
    2.7174   -0.2356   -7.2731 H   0  0  0  0  0  0  0  0  0  0  0  0
    2.0138   -1.4309   -5.3020 H   0  0  0  0  0  0  0  0  0  0  0  0
   -1.0451   -1.2566   -1.7453 H   0  0  0  0  0  0  0  0  0  0  0  0
   -1.3955   -3.7130   -2.5198 H   0  0  0  0  0  0  0  0  0  0  0  0
    3.9560   -3.9970   -1.7597 H   0  0  0  0  0  0  0  0  0  0  0  0
    3.8090   -5.7743   -0.8064 H   0  0  0  0  0  0  0  0  0  0  0  0
    0.8416   -6.4857   -0.1451 H   0  0  0  0  0  0  0  0  0  0  0  0
    0.6044   -5.5255   -1.2903 H   0  0  0  0  0  0  0  0  0  0  0  0
    2.0547   -7.1252   -3.1305 H   0  0  0  0  0  0  0  0  0  0  0  0
    2.4956   -7.9394   -1.9337 H   0  0  0  0  0  0  0  0  0  0  0  0
  1  2  1  0  0  0  0
  1 22  1  0  0  0  0
  1 23  1  0  0  0  0
  1 24  1  0  0  0  0
  2  3  1  0  0  0  0
  2 25  1  0  0  0  0
  2 26  1  0  0  0  0
  3  4  2  0  0  0  0
  3 11  1  0  0  0  0
  4  5  1  0  0  0  0
  5  6  1  0  0  0  0
  5 10  1  0  0  0  0
  6  7  2  0  0  0  0
  7  8  1  0  0  0  0
  7 27  1  0  0  0  0
  8  9  2  0  0  0  0
  8 28  1  0  0  0  0
  9 10  1  0  0  0  0
  9 29  1  0  0  0  0
 10 11  2  0  0  0  0
 11 12  1  0  0  0  0
 12 13  1  0  0  0  0
 12 21  2  0  0  0  0
 13 14  2  0  0  0  0
 13 30  1  0  0  0  0
 14 15  1  0  0  0  0
 14 31  1  0  0  0  0
 15 16  2  0  0  0  0
 16 17  1  0  0  0  0
 16 21  1  0  0  0  0
 17 18  1  0  0  0  0
 17 32  1  0  0  0  0
 18 19  1  0  0  0  0
 18 20  1  0  0  0  0
 18 33  1  0  0  0  0
 19 20  1  0  0  0  0
 19 34  1  0  0  0  0
 19 35  1  0  0  0  0
 20 36  1  0  0  0  0
 20 37  1  0  0  0  0
M  END
