
 OpenBabel03132514253D

 53 55  0  0  0  0  0  0  0  0999 V2000
    1.0487    0.0859   -0.0156 C   0  0  0  0  0  0  0  0  0  0  0  0
    0.5587   -1.0961   -0.7392 N   0  0  0  0  0  0  0  0  0  0  0  0
   -0.2865   -2.0818   -0.0499 C   0  0  0  0  0  0  0  0  0  0  0  0
   -0.7101   -3.1037   -0.6755 O   0  0  0  0  0  0  0  0  0  0  0  0
   -0.6537   -1.8787    1.4110 C   0  0  0  0  0  0  0  0  0  0  0  0
    0.6130   -1.8305    2.2499 C   0  0  0  0  0  0  0  0  0  0  0  0
   -1.3887   -0.6144    1.5604 N   0  0  0  0  0  0  0  0  0  0  0  0
   -1.7438   -0.4180    2.9733 C   0  0  0  0  0  0  0  0  0  0  0  0
   -0.5435    0.5001    1.1081 C   0  0  0  0  0  0  0  0  0  0  0  0
    0.7231    0.5482    1.9469 C   0  0  0  0  0  0  0  0  0  0  0  0
    1.3259   -0.6149    2.3329 C   0  0  0  0  0  0  0  0  0  0  0  0
    2.4954   -0.5718    3.1255 C   0  0  0  0  0  0  0  0  0  0  0  0
    3.1944   -1.7271    3.5777 C   0  0  0  0  0  0  0  0  0  0  0  0
    2.7078   -3.0566    3.1822 N   0  0  0  0  0  0  0  0  0  0  0  0
    3.4136   -4.2630    3.6373 C   0  0  0  0  0  0  0  0  0  0  0  0
    4.0202   -5.1566    2.7788 C   0  0  0  0  0  0  0  0  0  0  0  0
    4.7240   -6.2521    3.2622 C   0  0  0  0  0  0  0  0  0  0  0  0
    4.8137   -6.4435    4.6399 C   0  0  0  0  0  0  0  0  0  0  0  0
    4.2063   -5.5468    5.4987 C   0  0  0  0  0  0  0  0  0  0  0  0
    4.3470   -5.7513    7.2111 Cl  0  0  0  0  0  0  0  0  0  0  0  0
    3.5123   -4.4730    4.9888 C   0  0  0  0  0  0  0  0  0  0  0  0
    2.9417   -3.5921    5.8357 F   0  0  0  0  0  0  0  0  0  0  0  0
    4.2598   -1.6387    4.3369 N   0  0  0  0  0  0  0  0  0  0  0  0
    4.6946   -0.3826    4.6631 C   0  0  0  0  0  0  0  0  0  0  0  0
    4.1617    0.7505    4.2968 N   0  0  0  0  0  0  0  0  0  0  0  0
    3.0377    0.6738    3.5145 C   0  0  0  0  0  0  0  0  0  0  0  0
    2.4054    1.8586    3.0757 C   0  0  0  0  0  0  0  0  0  0  0  0
    1.2672    1.7918    2.3213 C   0  0  0  0  0  0  0  0  0  0  0  0
    0.6262    2.9905    1.9106 O   0  0  0  0  0  0  0  0  0  0  0  0
   -0.5564    2.9306    1.1269 C   0  0  0  0  0  0  0  0  0  0  0  0
    0.6920    0.0600    0.9929 H   0  0  0  0  0  0  0  0  0  0  0  0
    0.6920    0.9723   -0.4974 H   0  0  0  0  0  0  0  0  0  0  0  0
    2.1187    0.0859   -0.0156 H   0  0  0  0  0  0  0  0  0  0  0  0
    0.8051   -1.2324   -1.7196 H   0  0  0  0  0  0  0  0  0  0  0  0
   -1.2688   -2.6899    1.7403 H   0  0  0  0  0  0  0  0  0  0  0  0
    1.2282   -1.0193    1.9207 H   0  0  0  0  0  0  0  0  0  0  0  0
    0.3545   -1.6876    3.2783 H   0  0  0  0  0  0  0  0  0  0  0  0
    1.1480   -2.7508    2.1412 H   0  0  0  0  0  0  0  0  0  0  0  0
   -0.8521   -0.3841    3.5638 H   0  0  0  0  0  0  0  0  0  0  0  0
   -2.2788    0.5022    3.0820 H   0  0  0  0  0  0  0  0  0  0  0  0
   -2.3589   -1.2293    3.3025 H   0  0  0  0  0  0  0  0  0  0  0  0
   -0.2850    0.3571    0.0797 H   0  0  0  0  0  0  0  0  0  0  0  0
   -1.0785    1.4203    1.2168 H   0  0  0  0  0  0  0  0  0  0  0  0
    0.9137   -1.5566    2.0361 H   0  0  0  0  0  0  0  0  0  0  0  0
    1.8803   -3.1419    2.5919 H   0  0  0  0  0  0  0  0  0  0  0  0
    3.9472   -5.0030    1.7224 H   0  0  0  0  0  0  0  0  0  0  0  0
    5.1903   -6.9389    2.5871 H   0  0  0  0  0  0  0  0  0  0  0  0
    5.3512   -7.2818    5.0315 H   0  0  0  0  0  0  0  0  0  0  0  0
    5.5637   -0.3237    5.2844 H   0  0  0  0  0  0  0  0  0  0  0  0
    2.8187    2.8110    3.3345 H   0  0  0  0  0  0  0  0  0  0  0  0
   -0.3508    2.4200    0.2094 H   0  0  0  0  0  0  0  0  0  0  0  0
   -1.3154    2.4034    1.6662 H   0  0  0  0  0  0  0  0  0  0  0  0
   -0.8942    3.9235    0.9146 H   0  0  0  0  0  0  0  0  0  0  0  0
  1  2  1  0  0  0  0
  1 31  1  0  0  0  0
  1 32  1  0  0  0  0
  1 33  1  0  0  0  0
  2  3  1  0  0  0  0
  2 34  1  0  0  0  0
  3  4  2  0  0  0  0
  3  5  1  0  0  0  0
  5  6  1  0  0  0  0
  5  7  1  0  0  0  0
  5 35  1  0  0  0  0
  6 36  1  0  0  0  0
  6 37  1  0  0  0  0
  6 38  1  0  0  0  0
  7  8  1  0  0  0  0
  7  9  1  0  0  0  0
  8 39  1  0  0  0  0
  8 40  1  0  0  0  0
  8 41  1  0  0  0  0
  9 10  1  0  0  0  0
  9 42  1  0  0  0  0
  9 43  1  0  0  0  0
 10 11  1  0  0  0  0
 10 28  2  0  0  0  0
 11 12  2  0  0  0  0
 11 44  1  0  0  0  0
 12 13  1  0  0  0  0
 12 26  1  0  0  0  0
 13 14  1  0  0  0  0
 13 23  2  0  0  0  0
 14 15  1  0  0  0  0
 14 45  1  0  0  0  0
 15 16  1  0  0  0  0
 15 21  2  0  0  0  0
 16 17  2  0  0  0  0
 16 46  1  0  0  0  0
 17 18  1  0  0  0  0
 17 47  1  0  0  0  0
 18 19  2  0  0  0  0
 18 48  1  0  0  0  0
 19 20  1  0  0  0  0
 19 21  1  0  0  0  0
 21 22  1  0  0  0  0
 23 24  1  0  0  0  0
 24 25  2  0  0  0  0
 24 49  1  0  0  0  0
 25 26  1  0  0  0  0
 26 27  2  0  0  0  0
 27 28  1  0  0  0  0
 27 50  1  0  0  0  0
 28 29  1  0  0  0  0
 29 30  1  0  0  0  0
 30 51  1  0  0  0  0
 30 52  1  0  0  0  0
 30 53  1  0  0  0  0
M  END
