
 OpenBabel03132512093D

 57 62  0  0  0  0  0  0  0  0999 V2000
    0.9559   -0.0141   -0.0887 C   0  0  0  0  0  0  0  0  0  0  0  0
    0.3526    1.6901    0.0001 S   0  0  0  0  0  0  0  0  0  0  0  0
    0.9559    2.4653    1.5203 C   0  0  0  0  0  0  0  0  0  0  0  0
    1.3331    1.6862    2.6016 C   0  0  0  0  0  0  0  0  0  0  0  0
    1.3461    2.3826    3.8332 C   0  0  0  0  0  0  0  0  0  0  0  0
    1.3651    3.6979    3.9497 C   0  0  0  0  0  0  0  0  0  0  0  0
    1.0497    4.4124    2.8274 C   0  0  0  0  0  0  0  0  0  0  0  0
    0.8924    3.7884    1.6135 C   0  0  0  0  0  0  0  0  0  0  0  0
    0.6516    4.5927    0.4069 N   0  0  0  0  0  0  0  0  0  0  0  0
    0.5800    6.0579    0.5024 C   0  0  0  0  0  0  0  0  0  0  0  0
    1.6530    6.7471    0.9669 N   0  0  0  0  0  0  0  0  0  0  0  0
    1.6129    8.1461    1.0898 C   0  0  0  0  0  0  0  0  0  0  0  0
    2.7924    8.8685    1.5878 N   0  0  0  0  0  0  0  0  0  0  0  0
    3.1306    9.7871    2.7755 C   0  0  0  0  0  0  0  0  0  0  0  0
    4.5803    9.3321    2.6039 C   0  0  0  0  0  0  0  0  0  0  0  0
    5.7480   10.2466    2.9811 C   0  0  0  0  0  0  0  0  0  0  0  0
    6.5413    8.9617    3.2830 N   0  0  0  0  0  0  0  0  0  0  0  0
    5.1884    8.2654    3.5150 C   0  0  0  0  0  0  0  0  0  0  0  0
    4.2564    9.0305    1.1396 C   0  0  0  0  0  0  0  0  0  0  0  0
    0.4719    8.8494    0.7459 N   0  0  0  0  0  0  0  0  0  0  0  0
   -0.6462    8.1579    0.2592 C   0  0  0  0  0  0  0  0  0  0  0  0
   -1.8203    8.8459   -0.1049 C   0  0  0  0  0  0  0  0  0  0  0  0
   -1.8821   10.3095    0.0175 N   0  0  0  0  0  0  0  0  0  0  0  0
   -3.1071   11.0278   -0.3623 C   0  0  0  0  0  0  0  0  0  0  0  0
   -3.6463   11.7821    0.8422 C   0  0  0  0  0  0  0  0  0  0  0  0
   -3.7943   13.3040    0.7893 C   0  0  0  0  0  0  0  0  0  0  0  0
   -5.0392   12.4134    0.7793 C   0  0  0  0  0  0  0  0  0  0  0  0
   -2.8937    8.1586   -0.5682 N   0  0  0  0  0  0  0  0  0  0  0  0
   -2.8542    6.7577   -0.6926 C   0  0  0  0  0  0  0  0  0  0  0  0
   -1.7143    6.0519   -0.3429 N   0  0  0  0  0  0  0  0  0  0  0  0
   -0.5941    6.7449    0.1382 C   0  0  0  0  0  0  0  0  0  0  0  0
    0.5993   -0.4724   -0.9874 H   0  0  0  0  0  0  0  0  0  0  0  0
    0.5993   -0.5633    0.7576 H   0  0  0  0  0  0  0  0  0  0  0  0
    2.0259   -0.0141   -0.0887 H   0  0  0  0  0  0  0  0  0  0  0  0
    1.5912    0.6515    2.5136 H   0  0  0  0  0  0  0  0  0  0  0  0
    1.3402    1.8032    4.7328 H   0  0  0  0  0  0  0  0  0  0  0  0
    1.6140    4.1786    4.8727 H   0  0  0  0  0  0  0  0  0  0  0  0
    0.9236    5.4728    2.8955 H   0  0  0  0  0  0  0  0  0  0  0  0
    0.5341    4.1342   -0.4967 H   0  0  0  0  0  0  0  0  0  0  0  0
    2.8571   10.8215    2.7903 H   0  0  0  0  0  0  0  0  0  0  0  0
    2.6786    9.5055    3.7036 H   0  0  0  0  0  0  0  0  0  0  0  0
    6.1173   11.0011    2.3184 H   0  0  0  0  0  0  0  0  0  0  0  0
    5.5708   10.8747    3.8290 H   0  0  0  0  0  0  0  0  0  0  0  0
    7.0781    8.5978    2.4958 H   0  0  0  0  0  0  0  0  0  0  0  0
    4.8090    8.0726    4.4968 H   0  0  0  0  0  0  0  0  0  0  0  0
    5.1277    7.2657    3.1384 H   0  0  0  0  0  0  0  0  0  0  0  0
    4.7700    8.2709    0.5880 H   0  0  0  0  0  0  0  0  0  0  0  0
    4.4322    9.8418    0.4645 H   0  0  0  0  0  0  0  0  0  0  0  0
   -1.0749   10.8267    0.3660 H   0  0  0  0  0  0  0  0  0  0  0  0
   -2.8855   11.7207   -1.1470 H   0  0  0  0  0  0  0  0  0  0  0  0
   -3.8408   10.3269   -0.7019 H   0  0  0  0  0  0  0  0  0  0  0  0
   -3.1540   11.0943    1.4976 H   0  0  0  0  0  0  0  0  0  0  0  0
   -3.4518   14.1188    1.3924 H   0  0  0  0  0  0  0  0  0  0  0  0
   -3.5118   13.8387   -0.0934 H   0  0  0  0  0  0  0  0  0  0  0  0
   -5.8894   12.3084    0.1382 H   0  0  0  0  0  0  0  0  0  0  0  0
   -5.6807   12.3807    1.6351 H   0  0  0  0  0  0  0  0  0  0  0  0
   -3.7113    6.2332   -1.0602 H   0  0  0  0  0  0  0  0  0  0  0  0
  1  2  1  0  0  0  0
  1 32  1  0  0  0  0
  1 33  1  0  0  0  0
  1 34  1  0  0  0  0
  2  3  1  0  0  0  0
  3  4  1  0  0  0  0
  3  8  2  0  0  0  0
  4  5  2  0  0  0  0
  4 35  1  0  0  0  0
  5  6  1  0  0  0  0
  5 36  1  0  0  0  0
  6  7  2  0  0  0  0
  6 37  1  0  0  0  0
  7  8  1  0  0  0  0
  7 38  1  0  0  0  0
  8  9  1  0  0  0  0
  9 10  1  0  0  0  0
  9 39  1  0  0  0  0
 10 11  1  0  0  0  0
 10 31  2  0  0  0  0
 11 12  2  0  0  0  0
 12 13  1  0  0  0  0
 12 20  1  0  0  0  0
 13 14  1  0  0  0  0
 13 19  1  0  0  0  0
 14 15  1  0  0  0  0
 14 40  1  0  0  0  0
 14 41  1  0  0  0  0
 15 16  1  0  0  0  0
 15 18  1  0  0  0  0
 15 19  1  0  0  0  0
 16 17  1  0  0  0  0
 16 42  1  0  0  0  0
 16 43  1  0  0  0  0
 17 18  1  0  0  0  0
 17 44  1  0  0  0  0
 18 45  1  0  0  0  0
 18 46  1  0  0  0  0
 19 47  1  0  0  0  0
 19 48  1  0  0  0  0
 20 21  2  0  0  0  0
 21 22  1  0  0  0  0
 21 31  1  0  0  0  0
 22 23  1  0  0  0  0
 22 28  2  0  0  0  0
 23 24  1  0  0  0  0
 23 49  1  0  0  0  0
 24 25  1  0  0  0  0
 24 50  1  0  0  0  0
 24 51  1  0  0  0  0
 25 26  1  0  0  0  0
 25 27  1  0  0  0  0
 25 52  1  0  0  0  0
 26 27  1  0  0  0  0
 26 53  1  0  0  0  0
 26 54  1  0  0  0  0
 27 55  1  0  0  0  0
 27 56  1  0  0  0  0
 28 29  1  0  0  0  0
 29 30  2  0  0  0  0
 29 57  1  0  0  0  0
 30 31  1  0  0  0  0
M  END
