
 OpenBabel03132512083D

 43 46  0  0  0  0  0  0  0  0999 V2000
    1.0302    0.0098    0.0948 O   0  0  0  0  0  0  0  0  0  0  0  0
    2.3011    0.0098    0.0948 C   0  0  0  0  0  0  0  0  0  0  0  0
    3.0111   -0.5421   -1.0041 O   0  0  0  0  0  0  0  0  0  0  0  0
    3.0611    0.6006    1.2712 C   0  0  0  0  0  0  0  0  0  0  0  0
    3.2915    2.1149    1.0061 C   0  0  0  0  0  0  0  0  0  0  0  0
    3.9642    2.8067    2.2074 C   0  0  0  0  0  0  0  0  0  0  0  0
    4.8714    1.8930    2.9444 C   0  0  0  0  0  0  0  0  0  0  0  0
    5.6114    2.2805    4.0459 N   0  0  0  0  0  0  0  0  0  0  0  0
    6.2776    1.1816    4.5454 C   0  0  0  0  0  0  0  0  0  0  0  0
    7.1750    1.0871    5.6089 C   0  0  0  0  0  0  0  0  0  0  0  0
    7.7186   -0.1610    5.8647 C   0  0  0  0  0  0  0  0  0  0  0  0
    7.3837   -1.2797    5.0951 C   0  0  0  0  0  0  0  0  0  0  0  0
    7.9484   -2.5432    5.4129 O   0  0  0  0  0  0  0  0  0  0  0  0
    7.6147   -3.6852    4.6377 C   0  0  0  0  0  0  0  0  0  0  0  0
    6.1154   -3.9249    4.7079 C   0  0  0  0  0  0  0  0  0  0  0  0
    5.2554   -2.8395    4.7373 C   0  0  0  0  0  0  0  0  0  0  0  0
    3.9268   -3.1703    5.0944 C   0  0  0  0  0  0  0  0  0  0  0  0
    3.4227   -4.3903    5.0563 C   0  0  0  0  0  0  0  0  0  0  0  0
    4.3207   -5.4166    4.9581 C   0  0  0  0  0  0  0  0  0  0  0  0
    5.6547   -5.1698    4.7398 C   0  0  0  0  0  0  0  0  0  0  0  0
    6.5085   -1.1714    4.0269 C   0  0  0  0  0  0  0  0  0  0  0  0
    5.9472    0.0731    3.7292 C   0  0  0  0  0  0  0  0  0  0  0  0
    5.0553    0.5617    2.7114 C   0  0  0  0  0  0  0  0  0  0  0  0
    4.3958   -0.1654    1.5673 C   0  0  0  0  0  0  0  0  0  0  0  0
    4.0111   -0.5421   -1.0041 H   0  0  0  0  0  0  0  0  0  0  0  0
    2.4739    0.4871    2.1584 H   0  0  0  0  0  0  0  0  0  0  0  0
    3.9389    2.2112    0.1597 H   0  0  0  0  0  0  0  0  0  0  0  0
    2.3470    2.5824    0.8209 H   0  0  0  0  0  0  0  0  0  0  0  0
    4.5504    3.6196    1.8324 H   0  0  0  0  0  0  0  0  0  0  0  0
    3.2039    3.1513    2.8768 H   0  0  0  0  0  0  0  0  0  0  0  0
    5.6570    3.2255    4.4270 H   0  0  0  0  0  0  0  0  0  0  0  0
    7.4320    1.9406    6.2008 H   0  0  0  0  0  0  0  0  0  0  0  0
    8.4125   -0.2721    6.6716 H   0  0  0  0  0  0  0  0  0  0  0  0
    7.9026   -3.5220    3.6201 H   0  0  0  0  0  0  0  0  0  0  0  0
    8.1310   -4.5402    5.0216 H   0  0  0  0  0  0  0  0  0  0  0  0
    5.5674   -1.8414    4.5105 H   0  0  0  0  0  0  0  0  0  0  0  0
    3.2860   -2.3768    5.4179 H   0  0  0  0  0  0  0  0  0  0  0  0
    2.3681   -4.5662    5.0999 H   0  0  0  0  0  0  0  0  0  0  0  0
    3.9799   -6.4264    5.0527 H   0  0  0  0  0  0  0  0  0  0  0  0
    6.3283   -5.9883    4.5943 H   0  0  0  0  0  0  0  0  0  0  0  0
    6.2652   -2.0303    3.4370 H   0  0  0  0  0  0  0  0  0  0  0  0
    4.2101   -1.1901    1.8129 H   0  0  0  0  0  0  0  0  0  0  0  0
    5.0296   -0.1524    0.7053 H   0  0  0  0  0  0  0  0  0  0  0  0
  1  2  2  0  0  0  0
  2  3  1  0  0  0  0
  2  4  1  0  0  0  0
  3 25  1  0  0  0  0
  4  5  1  0  0  0  0
  4 24  1  0  0  0  0
  4 26  1  0  0  0  0
  5  6  1  0  0  0  0
  5 27  1  0  0  0  0
  5 28  1  0  0  0  0
  6  7  1  0  0  0  0
  6 29  1  0  0  0  0
  6 30  1  0  0  0  0
  7  8  1  0  0  0  0
  7 23  2  0  0  0  0
  8  9  1  0  0  0  0
  8 31  1  0  0  0  0
  9 10  1  0  0  0  0
  9 22  2  0  0  0  0
 10 11  2  0  0  0  0
 10 32  1  0  0  0  0
 11 12  1  0  0  0  0
 11 33  1  0  0  0  0
 12 13  1  0  0  0  0
 12 21  2  0  0  0  0
 13 14  1  0  0  0  0
 14 15  1  0  0  0  0
 14 34  1  0  0  0  0
 14 35  1  0  0  0  0
 15 16  1  0  0  0  0
 15 20  2  0  0  0  0
 16 17  2  0  0  0  0
 16 36  1  0  0  0  0
 17 18  1  0  0  0  0
 17 37  1  0  0  0  0
 18 19  2  0  0  0  0
 18 38  1  0  0  0  0
 19 20  1  0  0  0  0
 19 39  1  0  0  0  0
 20 40  1  0  0  0  0
 21 22  1  0  0  0  0
 21 41  1  0  0  0  0
 22 23  1  0  0  0  0
 23 24  1  0  0  0  0
 24 42  1  0  0  0  0
 24 43  1  0  0  0  0
M  END
