
 OpenBabel03132514253D

 41 44  0  0  0  0  0  0  0  0999 V2000
    0.9179   -0.0161    0.0547 C   0  0  0  0  0  0  0  0  0  0  0  0
    0.4445    0.8619   -0.9559 O   0  0  0  0  0  0  0  0  0  0  0  0
    0.7876    2.2393   -0.9176 C   0  0  0  0  0  0  0  0  0  0  0  0
   -0.2127    3.1718   -1.1376 C   0  0  0  0  0  0  0  0  0  0  0  0
    0.2659    4.4854   -1.3555 C   0  0  0  0  0  0  0  0  0  0  0  0
    1.4771    4.9037   -1.0362 C   0  0  0  0  0  0  0  0  0  0  0  0
    2.4028    3.9352   -0.7632 C   0  0  0  0  0  0  0  0  0  0  0  0
    2.0356    2.6149   -0.6633 C   0  0  0  0  0  0  0  0  0  0  0  0
    3.0334    1.6091   -0.2714 N   0  0  0  0  0  0  0  0  0  0  0  0
    3.8581    1.7345    0.9366 C   0  0  0  0  0  0  0  0  0  0  0  0
    3.7749    0.4885    1.7971 C   0  0  0  0  0  0  0  0  0  0  0  0
    4.2263   -0.6836    1.0376 N   0  0  0  0  0  0  0  0  0  0  0  0
    5.3230   -1.5833    1.4230 C   0  0  0  0  0  0  0  0  0  0  0  0
    6.4055   -1.7565    0.6338 N   0  0  0  0  0  0  0  0  0  0  0  0
    7.4240   -2.5812    0.9940 C   0  0  0  0  0  0  0  0  0  0  0  0
    7.4092   -3.2585    2.1637 N   0  0  0  0  0  0  0  0  0  0  0  0
    6.3207   -3.1248    3.0279 C   0  0  0  0  0  0  0  0  0  0  0  0
    5.9911   -3.6384    4.2239 N   0  0  0  0  0  0  0  0  0  0  0  0
    4.8190   -3.1509    4.5765 N   0  0  0  0  0  0  0  0  0  0  0  0
    4.3596   -2.3280    3.6453 C   0  0  0  0  0  0  0  0  0  0  0  0
    2.6565   -1.3605    3.7142 Br  0  0  0  0  0  0  0  0  0  0  0  0
    5.2478   -2.2676    2.6542 C   0  0  0  0  0  0  0  0  0  0  0  0
    3.4016   -0.8090   -0.1704 C   0  0  0  0  0  0  0  0  0  0  0  0
    3.4848    0.4370   -1.0309 C   0  0  0  0  0  0  0  0  0  0  0  0
    0.5612   -1.0064   -0.1374 H   0  0  0  0  0  0  0  0  0  0  0  0
    0.5612    0.3127    1.0085 H   0  0  0  0  0  0  0  0  0  0  0  0
    1.9879   -0.0161    0.0547 H   0  0  0  0  0  0  0  0  0  0  0  0
   -1.2530    2.9215   -1.1425 H   0  0  0  0  0  0  0  0  0  0  0  0
   -0.3998    5.1887   -1.8106 H   0  0  0  0  0  0  0  0  0  0  0  0
    1.7209    5.9447   -0.9933 H   0  0  0  0  0  0  0  0  0  0  0  0
    3.4278    4.2093   -0.6255 H   0  0  0  0  0  0  0  0  0  0  0  0
    4.8763    1.8681    0.6361 H   0  0  0  0  0  0  0  0  0  0  0  0
    3.5161    2.5737    1.5056 H   0  0  0  0  0  0  0  0  0  0  0  0
    2.7590    0.3393    2.0979 H   0  0  0  0  0  0  0  0  0  0  0  0
    4.3969    0.6121    2.6589 H   0  0  0  0  0  0  0  0  0  0  0  0
    8.2587   -2.6974    0.3348 H   0  0  0  0  0  0  0  0  0  0  0  0
    4.3332   -3.3756    5.4448 H   0  0  0  0  0  0  0  0  0  0  0  0
    2.3834   -0.9426    0.1301 H   0  0  0  0  0  0  0  0  0  0  0  0
    3.7436   -1.6482   -0.7395 H   0  0  0  0  0  0  0  0  0  0  0  0
    2.8553    0.3124   -1.8871 H   0  0  0  0  0  0  0  0  0  0  0  0
    4.4981    0.5855   -1.3408 H   0  0  0  0  0  0  0  0  0  0  0  0
  1  2  1  0  0  0  0
  1 25  1  0  0  0  0
  1 26  1  0  0  0  0
  1 27  1  0  0  0  0
  2  3  1  0  0  0  0
  3  4  1  0  0  0  0
  3  8  2  0  0  0  0
  4  5  2  0  0  0  0
  4 28  1  0  0  0  0
  5  6  1  0  0  0  0
  5 29  1  0  0  0  0
  6  7  2  0  0  0  0
  6 30  1  0  0  0  0
  7  8  1  0  0  0  0
  7 31  1  0  0  0  0
  8  9  1  0  0  0  0
  9 10  1  0  0  0  0
  9 24  1  0  0  0  0
 10 11  1  0  0  0  0
 10 32  1  0  0  0  0
 10 33  1  0  0  0  0
 11 12  1  0  0  0  0
 11 34  1  0  0  0  0
 11 35  1  0  0  0  0
 12 13  1  0  0  0  0
 12 23  1  0  0  0  0
 13 14  2  0  0  0  0
 13 22  1  0  0  0  0
 14 15  1  0  0  0  0
 15 16  2  0  0  0  0
 15 36  1  0  0  0  0
 16 17  1  0  0  0  0
 17 18  2  0  0  0  0
 17 22  1  0  0  0  0
 18 19  1  0  0  0  0
 19 20  1  0  0  0  0
 19 37  1  0  0  0  0
 20 21  1  0  0  0  0
 20 22  2  0  0  0  0
 23 24  1  0  0  0  0
 23 38  1  0  0  0  0
 23 39  1  0  0  0  0
 24 40  1  0  0  0  0
 24 41  1  0  0  0  0
M  END
