
 OpenBabel03132512083D

 56 60  0  0  0  0  0  0  0  0999 V2000
    0.9461   -0.0671   -0.0510 O   0  0  0  0  0  0  0  0  0  0  0  0
    2.2170   -0.0671   -0.0510 C   0  0  0  0  0  0  0  0  0  0  0  0
    2.9270   -1.1973   -0.5356 O   0  0  0  0  0  0  0  0  0  0  0  0
    2.9770    1.1428    0.4677 C   0  0  0  0  0  0  0  0  0  0  0  0
    3.1593    1.0166    1.9829 C   0  0  0  0  0  0  0  0  0  0  0  0
    4.0790    2.1391    2.4792 C   0  0  0  0  0  0  0  0  0  0  0  0
    3.5729    3.4484    1.9271 C   0  0  0  0  0  0  0  0  0  0  0  0
    2.7010    3.5598    0.9000 C   0  0  0  0  0  0  0  0  0  0  0  0
    2.4545    4.8815    0.6532 C   0  0  0  0  0  0  0  0  0  0  0  0
    1.6585    5.4990   -0.2716 C   0  0  0  0  0  0  0  0  0  0  0  0
    1.5735    6.8462   -0.3228 C   0  0  0  0  0  0  0  0  0  0  0  0
    0.7388    7.4645   -1.2911 O   0  0  0  0  0  0  0  0  0  0  0  0
    0.6464    8.8803   -1.3486 C   0  0  0  0  0  0  0  0  0  0  0  0
    0.1238    9.4082   -0.0225 C   0  0  0  0  0  0  0  0  0  0  0  0
   -0.4348    8.5492    0.9645 C   0  0  0  0  0  0  0  0  0  0  0  0
   -1.0617    9.1088    2.0899 C   0  0  0  0  0  0  0  0  0  0  0  0
   -0.8968   10.3687    2.3674 C   0  0  0  0  0  0  0  0  0  0  0  0
   -0.0853   11.1674    1.5507 C   0  0  0  0  0  0  0  0  0  0  0  0
    0.2954   10.6985    0.2698 C   0  0  0  0  0  0  0  0  0  0  0  0
    2.3044    7.6375    0.5743 C   0  0  0  0  0  0  0  0  0  0  0  0
    3.1049    7.0352    1.5038 C   0  0  0  0  0  0  0  0  0  0  0  0
    3.1794    5.6384    1.5426 C   0  0  0  0  0  0  0  0  0  0  0  0
    3.8998    4.7475    2.3671 N   0  0  0  0  0  0  0  0  0  0  0  0
    4.8094    5.1033    3.4657 C   0  0  0  0  0  0  0  0  0  0  0  0
    4.2970    4.5001    4.7634 C   0  0  0  0  0  0  0  0  0  0  0  0
    4.1673    3.0848    4.8303 C   0  0  0  0  0  0  0  0  0  0  0  0
    3.5357    2.5026    5.9415 C   0  0  0  0  0  0  0  0  0  0  0  0
    3.3206    3.2093    7.0120 C   0  0  0  0  0  0  0  0  0  0  0  0
    2.5079    2.4735    8.4143 Cl  0  0  0  0  0  0  0  0  0  0  0  0
    3.7278    4.5491    7.0627 C   0  0  0  0  0  0  0  0  0  0  0  0
    4.0802    5.2192    5.8660 C   0  0  0  0  0  0  0  0  0  0  0  0
    2.1177    2.3777    0.1603 C   0  0  0  0  0  0  0  0  0  0  0  0
    3.9270   -1.1973   -0.5356 H   0  0  0  0  0  0  0  0  0  0  0  0
    3.9406    1.2187    0.0087 H   0  0  0  0  0  0  0  0  0  0  0  0
    3.5964    0.0675    2.2131 H   0  0  0  0  0  0  0  0  0  0  0  0
    2.2073    1.0954    2.4650 H   0  0  0  0  0  0  0  0  0  0  0  0
    5.0822    1.9647    2.1504 H   0  0  0  0  0  0  0  0  0  0  0  0
    4.0676    2.1693    3.5487 H   0  0  0  0  0  0  0  0  0  0  0  0
    1.0958    4.9075   -0.9633 H   0  0  0  0  0  0  0  0  0  0  0  0
    1.6146    9.2934   -1.5403 H   0  0  0  0  0  0  0  0  0  0  0  0
   -0.0236    9.1623   -2.1337 H   0  0  0  0  0  0  0  0  0  0  0  0
   -0.3779    7.4868    0.8506 H   0  0  0  0  0  0  0  0  0  0  0  0
   -1.6751    8.4984    2.7192 H   0  0  0  0  0  0  0  0  0  0  0  0
   -1.3813   10.7959    3.2204 H   0  0  0  0  0  0  0  0  0  0  0  0
    0.2448   12.1260    1.8928 H   0  0  0  0  0  0  0  0  0  0  0  0
    0.7140   11.3684   -0.4520 H   0  0  0  0  0  0  0  0  0  0  0  0
    2.2361    8.7045    0.5315 H   0  0  0  0  0  0  0  0  0  0  0  0
    3.6690    7.6257    2.1952 H   0  0  0  0  0  0  0  0  0  0  0  0
    5.7871    4.7221    3.2569 H   0  0  0  0  0  0  0  0  0  0  0  0
    4.8546    6.1681    3.5608 H   0  0  0  0  0  0  0  0  0  0  0  0
    4.5474    2.4698    4.0416 H   0  0  0  0  0  0  0  0  0  0  0  0
    3.2315    1.4773    5.9074 H   0  0  0  0  0  0  0  0  0  0  0  0
    3.7722    5.0629    8.0003 H   0  0  0  0  0  0  0  0  0  0  0  0
    4.1711    6.2851    5.8464 H   0  0  0  0  0  0  0  0  0  0  0  0
    2.1115    2.5690   -0.8924 H   0  0  0  0  0  0  0  0  0  0  0  0
    1.1123    2.2085    0.4849 H   0  0  0  0  0  0  0  0  0  0  0  0
  1  2  2  0  0  0  0
  2  3  1  0  0  0  0
  2  4  1  0  0  0  0
  3 33  1  0  0  0  0
  4  5  1  0  0  0  0
  4 32  1  0  0  0  0
  4 34  1  0  0  0  0
  5  6  1  0  0  0  0
  5 35  1  0  0  0  0
  5 36  1  0  0  0  0
  6  7  1  0  0  0  0
  6 37  1  0  0  0  0
  6 38  1  0  0  0  0
  7  8  2  0  0  0  0
  7 23  1  0  0  0  0
  8  9  1  0  0  0  0
  8 32  1  0  0  0  0
  9 10  1  0  0  0  0
  9 22  2  0  0  0  0
 10 11  2  0  0  0  0
 10 39  1  0  0  0  0
 11 12  1  0  0  0  0
 11 20  1  0  0  0  0
 12 13  1  0  0  0  0
 13 14  1  0  0  0  0
 13 40  1  0  0  0  0
 13 41  1  0  0  0  0
 14 15  1  0  0  0  0
 14 19  2  0  0  0  0
 15 16  2  0  0  0  0
 15 42  1  0  0  0  0
 16 17  1  0  0  0  0
 16 43  1  0  0  0  0
 17 18  2  0  0  0  0
 17 44  1  0  0  0  0
 18 19  1  0  0  0  0
 18 45  1  0  0  0  0
 19 46  1  0  0  0  0
 20 21  2  0  0  0  0
 20 47  1  0  0  0  0
 21 22  1  0  0  0  0
 21 48  1  0  0  0  0
 22 23  1  0  0  0  0
 23 24  1  0  0  0  0
 24 25  1  0  0  0  0
 24 49  1  0  0  0  0
 24 50  1  0  0  0  0
 25 26  1  0  0  0  0
 25 31  2  0  0  0  0
 26 27  2  0  0  0  0
 26 51  1  0  0  0  0
 27 28  1  0  0  0  0
 27 52  1  0  0  0  0
 28 29  1  0  0  0  0
 28 30  2  0  0  0  0
 30 31  1  0  0  0  0
 30 53  1  0  0  0  0
 31 54  1  0  0  0  0
 32 55  1  0  0  0  0
 32 56  1  0  0  0  0
M  END
