
 OpenBabel03132512083D

 41 43  0  0  0  0  0  0  0  0999 V2000
    1.0567    0.0619   -0.0543 O   0  0  0  0  0  0  0  0  0  0  0  0
    2.3276    0.0619   -0.0543 C   0  0  0  0  0  0  0  0  0  0  0  0
    3.0376    0.9407   -0.9145 O   0  0  0  0  0  0  0  0  0  0  0  0
    3.0876   -0.8788    0.8665 C   0  0  0  0  0  0  0  0  0  0  0  0
    2.4807   -1.0283    2.2723 C   0  0  0  0  0  0  0  0  0  0  0  0
    2.8496   -2.5181    2.1875 N   0  0  0  0  0  0  0  0  0  0  0  0
    4.1828   -2.8518    2.7091 C   0  0  0  0  0  0  0  0  0  0  0  0
    5.2391   -2.0925    1.9230 C   0  0  0  0  0  0  0  0  0  0  0  0
    6.1956   -2.7545    1.1711 C   0  0  0  0  0  0  0  0  0  0  0  0
    7.2307   -1.9163    0.6937 C   0  0  0  0  0  0  0  0  0  0  0  0
    7.1571   -0.5994    0.6265 C   0  0  0  0  0  0  0  0  0  0  0  0
    8.0759    0.1630   -0.1422 O   0  0  0  0  0  0  0  0  0  0  0  0
    7.9614    1.5777   -0.1875 C   0  0  0  0  0  0  0  0  0  0  0  0
    6.6035    1.9581   -0.7549 C   0  0  0  0  0  0  0  0  0  0  0  0
    6.3244    3.2938   -0.9929 C   0  0  0  0  0  0  0  0  0  0  0  0
    4.9579    3.5572   -1.2482 C   0  0  0  0  0  0  0  0  0  0  0  0
    4.0709    2.6424   -1.5951 C   0  0  0  0  0  0  0  0  0  0  0  0
    2.4887    3.0829   -2.2816 Cl  0  0  0  0  0  0  0  0  0  0  0  0
    4.4332    1.3387   -1.3987 C   0  0  0  0  0  0  0  0  0  0  0  0
    3.2294    0.0488   -1.6337 Cl  0  0  0  0  0  0  0  0  0  0  0  0
    5.7132    1.0100   -1.0225 C   0  0  0  0  0  0  0  0  0  0  0  0
    6.1486   -0.0097    1.3367 C   0  0  0  0  0  0  0  0  0  0  0  0
    5.1737   -0.7663    1.9409 C   0  0  0  0  0  0  0  0  0  0  0  0
    2.7755   -2.3722    0.6586 C   0  0  0  0  0  0  0  0  0  0  0  0
    4.0376    0.9407   -0.9145 H   0  0  0  0  0  0  0  0  0  0  0  0
    4.0678   -0.4784    0.7120 H   0  0  0  0  0  0  0  0  0  0  0  0
    2.7911   -0.4137    3.0914 H   0  0  0  0  0  0  0  0  0  0  0  0
    1.4310   -0.8294    2.3303 H   0  0  0  0  0  0  0  0  0  0  0  0
    4.2408   -2.5773    3.7417 H   0  0  0  0  0  0  0  0  0  0  0  0
    4.3517   -3.9037    2.6097 H   0  0  0  0  0  0  0  0  0  0  0  0
    6.1554   -3.8046    0.9696 H   0  0  0  0  0  0  0  0  0  0  0  0
    8.1361   -2.3817    0.3643 H   0  0  0  0  0  0  0  0  0  0  0  0
    8.0590    1.9753    0.8011 H   0  0  0  0  0  0  0  0  0  0  0  0
    8.7333    1.9782   -0.8108 H   0  0  0  0  0  0  0  0  0  0  0  0
    7.0742    4.0571   -0.9844 H   0  0  0  0  0  0  0  0  0  0  0  0
    4.6196    4.5679   -1.1536 H   0  0  0  0  0  0  0  0  0  0  0  0
    5.9950   -0.0192   -0.9444 H   0  0  0  0  0  0  0  0  0  0  0  0
    6.1180    1.0563    1.4233 H   0  0  0  0  0  0  0  0  0  0  0  0
    4.3543   -0.2825    2.4304 H   0  0  0  0  0  0  0  0  0  0  0  0
    1.9252   -2.7009    0.0984 H   0  0  0  0  0  0  0  0  0  0  0  0
    3.5236   -2.9155    0.1199 H   0  0  0  0  0  0  0  0  0  0  0  0
  1  2  2  0  0  0  0
  2  3  1  0  0  0  0
  2  4  1  0  0  0  0
  3 25  1  0  0  0  0
  4  5  1  0  0  0  0
  4 24  1  0  0  0  0
  4 26  1  0  0  0  0
  5  6  1  0  0  0  0
  5 27  1  0  0  0  0
  5 28  1  0  0  0  0
  6  7  1  0  0  0  0
  6 24  1  0  0  0  0
  7  8  1  0  0  0  0
  7 29  1  0  0  0  0
  7 30  1  0  0  0  0
  8  9  1  0  0  0  0
  8 23  2  0  0  0  0
  9 10  2  0  0  0  0
  9 31  1  0  0  0  0
 10 11  1  0  0  0  0
 10 32  1  0  0  0  0
 11 12  1  0  0  0  0
 11 22  2  0  0  0  0
 12 13  1  0  0  0  0
 13 14  1  0  0  0  0
 13 33  1  0  0  0  0
 13 34  1  0  0  0  0
 14 15  1  0  0  0  0
 14 21  2  0  0  0  0
 15 16  2  0  0  0  0
 15 35  1  0  0  0  0
 16 17  1  0  0  0  0
 16 36  1  0  0  0  0
 17 18  1  0  0  0  0
 17 19  2  0  0  0  0
 19 20  1  0  0  0  0
 19 21  1  0  0  0  0
 21 37  1  0  0  0  0
 22 23  1  0  0  0  0
 22 38  1  0  0  0  0
 23 39  1  0  0  0  0
 24 40  1  0  0  0  0
 24 41  1  0  0  0  0
M  END
