
 OpenBabel03132512093D

 41 44  0  0  0  0  0  0  0  0999 V2000
    1.0859   -0.0171   -0.0482 C   0  0  0  0  0  0  0  0  0  0  0  0
    0.5959   -1.3806   -0.2964 N   0  0  0  0  0  0  0  0  0  0  0  0
   -0.2492   -2.0510    0.7022 C   0  0  0  0  0  0  0  0  0  0  0  0
   -0.6728   -3.2299    0.4876 O   0  0  0  0  0  0  0  0  0  0  0  0
   -0.6164   -1.3344    1.9914 C   0  0  0  0  0  0  0  0  0  0  0  0
   -1.0359    0.0200    1.8987 C   0  0  0  0  0  0  0  0  0  0  0  0
   -1.2089    0.7942    3.0043 C   0  0  0  0  0  0  0  0  0  0  0  0
   -0.9521    0.2111    4.2664 C   0  0  0  0  0  0  0  0  0  0  0  0
   -1.0272    0.7966    5.4715 N   0  0  0  0  0  0  0  0  0  0  0  0
   -0.6749   -0.1928    6.3378 N   0  0  0  0  0  0  0  0  0  0  0  0
   -0.3847   -1.3837    5.7339 C   0  0  0  0  0  0  0  0  0  0  0  0
    0.0400   -2.6800    6.4043 C   0  0  0  0  0  0  0  0  0  0  0  0
    1.3330   -2.4541    7.1709 C   0  0  0  0  0  0  0  0  0  0  0  0
    1.3591   -1.4964    8.2080 C   0  0  0  0  0  0  0  0  0  0  0  0
    2.4949   -1.2240    8.9372 C   0  0  0  0  0  0  0  0  0  0  0  0
    3.6346   -1.9761    8.5767 C   0  0  0  0  0  0  0  0  0  0  0  0
    3.6230   -2.9488    7.5730 C   0  0  0  0  0  0  0  0  0  0  0  0
    4.9389   -3.4905    7.5850 C   0  0  0  0  0  0  0  0  0  0  0  0
    5.6919   -2.8921    8.5101 N   0  0  0  0  0  0  0  0  0  0  0  0
    4.8894   -1.9685    9.1094 N   0  0  0  0  0  0  0  0  0  0  0  0
    5.4037   -1.0607   10.1126 C   0  0  0  0  0  0  0  0  0  0  0  0
    2.4379   -3.1846    6.8480 C   0  0  0  0  0  0  0  0  0  0  0  0
   -0.5628   -1.1526    4.3651 C   0  0  0  0  0  0  0  0  0  0  0  0
   -0.3964   -1.9335    3.1939 C   0  0  0  0  0  0  0  0  0  0  0  0
    0.7293    0.3227    0.9016 H   0  0  0  0  0  0  0  0  0  0  0  0
    0.7293    0.6356   -0.8174 H   0  0  0  0  0  0  0  0  0  0  0  0
    2.1559   -0.0171   -0.0482 H   0  0  0  0  0  0  0  0  0  0  0  0
    0.8423   -1.8615   -1.1615 H   0  0  0  0  0  0  0  0  0  0  0  0
   -1.2209    0.4427    0.9332 H   0  0  0  0  0  0  0  0  0  0  0  0
   -1.5290    1.8118    2.9212 H   0  0  0  0  0  0  0  0  0  0  0  0
   -0.6315   -0.0571    7.3478 H   0  0  0  0  0  0  0  0  0  0  0  0
   -0.7249   -2.9988    7.0812 H   0  0  0  0  0  0  0  0  0  0  0  0
    0.1937   -3.4329    5.6597 H   0  0  0  0  0  0  0  0  0  0  0  0
    0.4611   -0.9612    8.4362 H   0  0  0  0  0  0  0  0  0  0  0  0
    2.5127   -0.4951    9.7203 H   0  0  0  0  0  0  0  0  0  0  0  0
    5.2789   -4.2727    6.9390 H   0  0  0  0  0  0  0  0  0  0  0  0
    5.3480   -0.0566    9.7471 H   0  0  0  0  0  0  0  0  0  0  0  0
    4.8204   -1.1482   11.0054 H   0  0  0  0  0  0  0  0  0  0  0  0
    6.4228   -1.3062   10.3269 H   0  0  0  0  0  0  0  0  0  0  0  0
    2.4062   -3.9155    6.0671 H   0  0  0  0  0  0  0  0  0  0  0  0
   -0.1068   -2.9619    3.2531 H   0  0  0  0  0  0  0  0  0  0  0  0
  1  2  1  0  0  0  0
  1 25  1  0  0  0  0
  1 26  1  0  0  0  0
  1 27  1  0  0  0  0
  2  3  1  0  0  0  0
  2 28  1  0  0  0  0
  3  4  2  0  0  0  0
  3  5  1  0  0  0  0
  5  6  1  0  0  0  0
  5 24  2  0  0  0  0
  6  7  2  0  0  0  0
  6 29  1  0  0  0  0
  7  8  1  0  0  0  0
  7 30  1  0  0  0  0
  8  9  2  0  0  0  0
  8 23  1  0  0  0  0
  9 10  1  0  0  0  0
 10 11  1  0  0  0  0
 10 31  1  0  0  0  0
 11 12  1  0  0  0  0
 11 23  2  0  0  0  0
 12 13  1  0  0  0  0
 12 32  1  0  0  0  0
 12 33  1  0  0  0  0
 13 14  1  0  0  0  0
 13 22  2  0  0  0  0
 14 15  2  0  0  0  0
 14 34  1  0  0  0  0
 15 16  1  0  0  0  0
 15 35  1  0  0  0  0
 16 17  2  0  0  0  0
 16 20  1  0  0  0  0
 17 18  1  0  0  0  0
 17 22  1  0  0  0  0
 18 19  2  0  0  0  0
 18 36  1  0  0  0  0
 19 20  1  0  0  0  0
 20 21  1  0  0  0  0
 21 37  1  0  0  0  0
 21 38  1  0  0  0  0
 21 39  1  0  0  0  0
 22 40  1  0  0  0  0
 23 24  1  0  0  0  0
 24 41  1  0  0  0  0
M  END
