
 OpenBabel03132514253D

 68 71  0  0  0  0  0  0  0  0999 V2000
    0.9013   -0.0041   -0.0157 C   0  0  0  0  0  0  0  0  0  0  0  0
    0.3947   -0.6824   -1.2781 C   0  0  0  0  0  0  0  0  0  0  0  0
    0.8847   -2.0677   -1.3204 N   0  0  0  0  0  0  0  0  0  0  0  0
    0.3946   -2.7237   -2.5412 C   0  0  0  0  0  0  0  0  0  0  0  0
    0.9013   -1.9697   -3.7598 C   0  0  0  0  0  0  0  0  0  0  0  0
    2.3547   -2.0677   -1.3204 C   0  0  0  0  0  0  0  0  0  0  0  0
    2.8613   -1.3136   -2.5390 C   0  0  0  0  0  0  0  0  0  0  0  0
    2.3713    0.0717   -2.4967 N   0  0  0  0  0  0  0  0  0  0  0  0
    3.3266    1.1884   -2.4626 C   0  0  0  0  0  0  0  0  0  0  0  0
    2.9030    2.3861   -2.4261 O   0  0  0  0  0  0  0  0  0  0  0  0
    4.8210    0.9108   -2.4711 C   0  0  0  0  0  0  0  0  0  0  0  0
    5.4744    0.0166   -3.2824 C   0  0  0  0  0  0  0  0  0  0  0  0
    4.9690   -0.8776   -4.3614 C   0  0  0  0  0  0  0  0  0  0  0  0
    6.7970    0.0585   -2.9537 N   0  0  0  0  0  0  0  0  0  0  0  0
    7.0156    0.9806   -1.9587 C   0  0  0  0  0  0  0  0  0  0  0  0
    8.3570    1.3239   -1.3318 C   0  0  0  0  0  0  0  0  0  0  0  0
    9.3497    1.8042   -2.1009 C   0  0  0  0  0  0  0  0  0  0  0  0
    9.1418    2.0613   -3.5580 C   0  0  0  0  0  0  0  0  0  0  0  0
    8.1354    1.8394   -4.2335 O   0  0  0  0  0  0  0  0  0  0  0  0
   10.2852    2.6151   -4.0314 N   0  0  0  0  0  0  0  0  0  0  0  0
   11.2466    2.7365   -3.0220 C   0  0  0  0  0  0  0  0  0  0  0  0
   10.7220    2.2356   -1.8298 C   0  0  0  0  0  0  0  0  0  0  0  0
   11.5669    2.1993   -0.7280 C   0  0  0  0  0  0  0  0  0  0  0  0
   12.8618    2.6888   -0.8421 C   0  0  0  0  0  0  0  0  0  0  0  0
   13.3328    3.2334   -2.0284 C   0  0  0  0  0  0  0  0  0  0  0  0
   12.5163    3.2476   -3.1538 C   0  0  0  0  0  0  0  0  0  0  0  0
   13.0085    3.8066   -4.4788 C   0  0  0  0  0  0  0  0  0  0  0  0
   14.0246    3.2080   -5.2075 C   0  0  0  0  0  0  0  0  0  0  0  0
   14.4147    3.6137   -6.4112 N   0  0  0  0  0  0  0  0  0  0  0  0
   13.7486    4.6504   -6.9275 C   0  0  0  0  0  0  0  0  0  0  0  0
   12.7023    5.3095   -6.3003 C   0  0  0  0  0  0  0  0  0  0  0  0
   12.0235    6.4779   -6.9716 C   0  0  0  0  0  0  0  0  0  0  0  0
   12.3441    4.8714   -5.0524 C   0  0  0  0  0  0  0  0  0  0  0  0
    5.8025    1.5356   -1.6334 C   0  0  0  0  0  0  0  0  0  0  0  0
    5.5316    2.5696   -0.5699 C   0  0  0  0  0  0  0  0  0  0  0  0
    0.5447   -0.5349    0.8421 H   0  0  0  0  0  0  0  0  0  0  0  0
    0.5447    1.0043    0.0150 H   0  0  0  0  0  0  0  0  0  0  0  0
    1.9713   -0.0041   -0.0157 H   0  0  0  0  0  0  0  0  0  0  0  0
   -0.6753   -0.6824   -1.2781 H   0  0  0  0  0  0  0  0  0  0  0  0
    0.7513   -0.1516   -2.1359 H   0  0  0  0  0  0  0  0  0  0  0  0
    0.7513   -3.7321   -2.5720 H   0  0  0  0  0  0  0  0  0  0  0  0
   -0.6754   -2.7237   -2.5412 H   0  0  0  0  0  0  0  0  0  0  0  0
    1.9713   -1.9697   -3.7598 H   0  0  0  0  0  0  0  0  0  0  0  0
    0.5446   -2.4472   -4.6485 H   0  0  0  0  0  0  0  0  0  0  0  0
    0.5447   -0.9613   -3.7291 H   0  0  0  0  0  0  0  0  0  0  0  0
    2.7113   -1.5902   -0.4317 H   0  0  0  0  0  0  0  0  0  0  0  0
    2.7113   -3.0760   -1.3511 H   0  0  0  0  0  0  0  0  0  0  0  0
    3.9313   -1.3136   -2.5390 H   0  0  0  0  0  0  0  0  0  0  0  0
    2.5047   -1.7911   -3.4276 H   0  0  0  0  0  0  0  0  0  0  0  0
    1.3685    0.2580   -2.4910 H   0  0  0  0  0  0  0  0  0  0  0  0
    4.2443   -1.5521   -3.9553 H   0  0  0  0  0  0  0  0  0  0  0  0
    4.5156   -0.2877   -5.1304 H   0  0  0  0  0  0  0  0  0  0  0  0
    5.7839   -1.4354   -4.7733 H   0  0  0  0  0  0  0  0  0  0  0  0
    7.5222   -0.5142   -3.3857 H   0  0  0  0  0  0  0  0  0  0  0  0
    8.5107    1.1839   -0.2822 H   0  0  0  0  0  0  0  0  0  0  0  0
   10.4265    2.9058   -4.9988 H   0  0  0  0  0  0  0  0  0  0  0  0
   11.2228    1.7972    0.2020 H   0  0  0  0  0  0  0  0  0  0  0  0
   13.5126    2.6449    0.0061 H   0  0  0  0  0  0  0  0  0  0  0  0
   14.3209    3.6410   -2.0769 H   0  0  0  0  0  0  0  0  0  0  0  0
   14.5256    2.3677   -4.7740 H   0  0  0  0  0  0  0  0  0  0  0  0
   14.0441    4.9974   -7.8956 H   0  0  0  0  0  0  0  0  0  0  0  0
   12.7404    7.2517   -7.1512 H   0  0  0  0  0  0  0  0  0  0  0  0
   11.6021    6.1591   -7.9020 H   0  0  0  0  0  0  0  0  0  0  0  0
   11.2467    6.8515   -6.3376 H   0  0  0  0  0  0  0  0  0  0  0  0
   11.5498    5.3548   -4.5229 H   0  0  0  0  0  0  0  0  0  0  0  0
    5.0755    3.4287   -1.0157 H   0  0  0  0  0  0  0  0  0  0  0  0
    4.8739    2.1589    0.1675 H   0  0  0  0  0  0  0  0  0  0  0  0
    6.4530    2.8548   -0.1068 H   0  0  0  0  0  0  0  0  0  0  0  0
  1  2  1  0  0  0  0
  1 36  1  0  0  0  0
  1 37  1  0  0  0  0
  1 38  1  0  0  0  0
  2  3  1  0  0  0  0
  2 39  1  0  0  0  0
  2 40  1  0  0  0  0
  3  4  1  0  0  0  0
  3  6  1  0  0  0  0
  4  5  1  0  0  0  0
  4 41  1  0  0  0  0
  4 42  1  0  0  0  0
  5 43  1  0  0  0  0
  5 44  1  0  0  0  0
  5 45  1  0  0  0  0
  6  7  1  0  0  0  0
  6 46  1  0  0  0  0
  6 47  1  0  0  0  0
  7  8  1  0  0  0  0
  7 48  1  0  0  0  0
  7 49  1  0  0  0  0
  8  9  1  0  0  0  0
  8 50  1  0  0  0  0
  9 10  2  0  0  0  0
  9 11  1  0  0  0  0
 11 12  2  0  0  0  0
 11 34  1  0  0  0  0
 12 13  1  0  0  0  0
 12 14  1  0  0  0  0
 13 51  1  0  0  0  0
 13 52  1  0  0  0  0
 13 53  1  0  0  0  0
 14 15  1  0  0  0  0
 14 54  1  0  0  0  0
 15 16  1  0  0  0  0
 15 34  2  0  0  0  0
 16 17  2  0  0  0  0
 16 55  1  0  0  0  0
 17 18  1  0  0  0  0
 17 22  1  0  0  0  0
 18 19  2  0  0  0  0
 18 20  1  0  0  0  0
 20 21  1  0  0  0  0
 20 56  1  0  0  0  0
 21 22  1  0  0  0  0
 21 26  2  0  0  0  0
 22 23  2  0  0  0  0
 23 24  1  0  0  0  0
 23 57  1  0  0  0  0
 24 25  2  0  0  0  0
 24 58  1  0  0  0  0
 25 26  1  0  0  0  0
 25 59  1  0  0  0  0
 26 27  1  0  0  0  0
 27 28  1  0  0  0  0
 27 33  2  0  0  0  0
 28 29  2  0  0  0  0
 28 60  1  0  0  0  0
 29 30  1  0  0  0  0
 30 31  2  0  0  0  0
 30 61  1  0  0  0  0
 31 32  1  0  0  0  0
 31 33  1  0  0  0  0
 32 62  1  0  0  0  0
 32 63  1  0  0  0  0
 32 64  1  0  0  0  0
 33 65  1  0  0  0  0
 34 35  1  0  0  0  0
 35 66  1  0  0  0  0
 35 67  1  0  0  0  0
 35 68  1  0  0  0  0
M  END
