
 OpenBabel03132512093D

 54 57  0  0  0  0  0  0  0  0999 V2000
    1.0229    0.0819   -0.0527 C   0  0  0  0  0  0  0  0  0  0  0  0
    0.5162   -0.5310    1.2427 C   0  0  0  0  0  0  0  0  0  0  0  0
   -0.2145    0.1529    2.0261 O   0  0  0  0  0  0  0  0  0  0  0  0
    0.8713   -1.9147    1.5895 N   0  0  0  0  0  0  0  0  0  0  0  0
    1.7165   -2.7057    0.6834 C   0  0  0  0  0  0  0  0  0  0  0  0
    1.5011   -4.0534    0.4168 C   0  0  0  0  0  0  0  0  0  0  0  0
    2.1188   -4.5743   -0.7421 C   0  0  0  0  0  0  0  0  0  0  0  0
    3.3729   -4.0556   -1.0597 C   0  0  0  0  0  0  0  0  0  0  0  0
    3.6890   -2.8619   -0.6042 C   0  0  0  0  0  0  0  0  0  0  0  0
    5.0507   -2.2700   -0.9296 C   0  0  0  0  0  0  0  0  0  0  0  0
    6.2188   -1.7624   -1.2087 C   0  0  0  0  0  0  0  0  0  0  0  0
    7.5805   -1.1706   -1.5341 C   0  0  0  0  0  0  0  0  0  0  0  0
    7.7421    0.1994   -1.5883 C   0  0  0  0  0  0  0  0  0  0  0  0
    8.9199    0.7309   -1.8761 N   0  0  0  0  0  0  0  0  0  0  0  0
    9.9803   -0.0224   -2.1150 C   0  0  0  0  0  0  0  0  0  0  0  0
    9.8913   -1.4005   -2.0779 N   0  0  0  0  0  0  0  0  0  0  0  0
    8.6706   -1.9912   -1.7855 C   0  0  0  0  0  0  0  0  0  0  0  0
    8.5351   -3.4543   -1.7428 N   0  0  0  0  0  0  0  0  0  0  0  0
    9.7008   -4.3086   -2.0117 C   0  0  0  0  0  0  0  0  0  0  0  0
   10.7950   -4.2341   -1.2521 C   0  0  0  0  0  0  0  0  0  0  0  0
   11.8994   -5.0786   -1.5544 C   0  0  0  0  0  0  0  0  0  0  0  0
   11.9416   -5.7410   -2.7922 C   0  0  0  0  0  0  0  0  0  0  0  0
   13.1501   -6.3405   -3.2355 O   0  0  0  0  0  0  0  0  0  0  0  0
   14.3156   -6.2701   -2.4275 C   0  0  0  0  0  0  0  0  0  0  0  0
   14.6890   -4.8140   -2.2025 C   0  0  0  0  0  0  0  0  0  0  0  0
   13.7571   -3.8673   -2.3258 C   0  0  0  0  0  0  0  0  0  0  0  0
   14.1236   -2.5104   -2.1050 C   0  0  0  0  0  0  0  0  0  0  0  0
   15.4836   -2.1625   -2.0610 C   0  0  0  0  0  0  0  0  0  0  0  0
   16.3890   -3.0892   -1.9473 C   0  0  0  0  0  0  0  0  0  0  0  0
   17.6770   -2.7591   -1.9159 F   0  0  0  0  0  0  0  0  0  0  0  0
   16.0093   -4.4350   -1.8577 C   0  0  0  0  0  0  0  0  0  0  0  0
   10.8741   -5.8055   -3.5324 C   0  0  0  0  0  0  0  0  0  0  0  0
   10.9330   -6.6338   -5.1069 Cl  0  0  0  0  0  0  0  0  0  0  0  0
    9.6778   -5.2239   -3.0921 C   0  0  0  0  0  0  0  0  0  0  0  0
    2.7861   -2.1313    0.1761 N   0  0  0  0  0  0  0  0  0  0  0  0
    0.6662    1.0873   -0.1350 H   0  0  0  0  0  0  0  0  0  0  0  0
    0.6662   -0.4922   -0.8822 H   0  0  0  0  0  0  0  0  0  0  0  0
    2.0929    0.0819   -0.0527 H   0  0  0  0  0  0  0  0  0  0  0  0
    0.5313   -2.3259    2.4588 H   0  0  0  0  0  0  0  0  0  0  0  0
    0.8988   -4.6643    1.0563 H   0  0  0  0  0  0  0  0  0  0  0  0
    1.6499   -5.3255   -1.3427 H   0  0  0  0  0  0  0  0  0  0  0  0
    4.0614   -4.6139   -1.6589 H   0  0  0  0  0  0  0  0  0  0  0  0
    6.9061    0.8388   -1.3954 H   0  0  0  0  0  0  0  0  0  0  0  0
   10.9182    0.4410   -2.3397 H   0  0  0  0  0  0  0  0  0  0  0  0
    7.6323   -3.8768   -1.5265 H   0  0  0  0  0  0  0  0  0  0  0  0
   10.8412   -3.5511   -0.4297 H   0  0  0  0  0  0  0  0  0  0  0  0
   12.6904   -5.2078   -0.8456 H   0  0  0  0  0  0  0  0  0  0  0  0
   14.1250   -6.7392   -1.4849 H   0  0  0  0  0  0  0  0  0  0  0  0
   15.1217   -6.7731   -2.9197 H   0  0  0  0  0  0  0  0  0  0  0  0
   12.7516   -4.1241   -2.5861 H   0  0  0  0  0  0  0  0  0  0  0  0
   13.3702   -1.7621   -1.9738 H   0  0  0  0  0  0  0  0  0  0  0  0
   15.7749   -1.1347   -2.1211 H   0  0  0  0  0  0  0  0  0  0  0  0
   16.7127   -5.1721   -1.5308 H   0  0  0  0  0  0  0  0  0  0  0  0
    8.7522   -5.4699   -3.5693 H   0  0  0  0  0  0  0  0  0  0  0  0
  1  2  1  0  0  0  0
  1 36  1  0  0  0  0
  1 37  1  0  0  0  0
  1 38  1  0  0  0  0
  2  3  2  0  0  0  0
  2  4  1  0  0  0  0
  4  5  1  0  0  0  0
  4 39  1  0  0  0  0
  5  6  1  0  0  0  0
  5 35  2  0  0  0  0
  6  7  2  0  0  0  0
  6 40  1  0  0  0  0
  7  8  1  0  0  0  0
  7 41  1  0  0  0  0
  8  9  2  0  0  0  0
  8 42  1  0  0  0  0
  9 10  1  0  0  0  0
  9 35  1  0  0  0  0
 10 11  3  0  0  0  0
 11 12  1  0  0  0  0
 12 13  1  0  0  0  0
 12 17  2  0  0  0  0
 13 14  2  0  0  0  0
 13 43  1  0  0  0  0
 14 15  1  0  0  0  0
 15 16  2  0  0  0  0
 15 44  1  0  0  0  0
 16 17  1  0  0  0  0
 17 18  1  0  0  0  0
 18 19  1  0  0  0  0
 18 45  1  0  0  0  0
 19 20  1  0  0  0  0
 19 34  2  0  0  0  0
 20 21  2  0  0  0  0
 20 46  1  0  0  0  0
 21 22  1  0  0  0  0
 21 47  1  0  0  0  0
 22 23  1  0  0  0  0
 22 32  2  0  0  0  0
 23 24  1  0  0  0  0
 24 25  1  0  0  0  0
 24 48  1  0  0  0  0
 24 49  1  0  0  0  0
 25 26  1  0  0  0  0
 25 31  2  0  0  0  0
 26 27  2  0  0  0  0
 26 50  1  0  0  0  0
 27 28  1  0  0  0  0
 27 51  1  0  0  0  0
 28 29  2  0  0  0  0
 28 52  1  0  0  0  0
 29 30  1  0  0  0  0
 29 31  1  0  0  0  0
 31 53  1  0  0  0  0
 32 33  1  0  0  0  0
 32 34  1  0  0  0  0
 34 54  1  0  0  0  0
M  END
