
 OpenBabel03132512083D

 67 72  0  0  0  0  0  0  0  0999 V2000
    1.0342    0.0492    0.0801 C   0  0  0  0  0  0  0  0  0  0  0  0
    0.5442   -1.3228    0.2761 N   0  0  0  0  0  0  0  0  0  0  0  0
    0.9247   -2.4501   -0.7562 S   0  0  0  0  0  0  0  0  0  0  0  0
    0.4060   -2.0670   -2.1441 O   0  0  0  0  0  0  0  0  0  0  0  0
    2.7245   -2.6327   -0.8140 C   0  0  0  0  0  0  0  0  0  0  0  0
    3.2778   -3.9010   -0.8754 C   0  0  0  0  0  0  0  0  0  0  0  0
    4.6695   -3.9323   -0.6220 C   0  0  0  0  0  0  0  0  0  0  0  0
    5.4649   -2.8795   -0.6783 C   0  0  0  0  0  0  0  0  0  0  0  0
    6.9773   -3.0205   -0.7345 C   0  0  0  0  0  0  0  0  0  0  0  0
    7.5574   -3.7091   -1.7870 C   0  0  0  0  0  0  0  0  0  0  0  0
    8.9214   -4.0251   -1.5828 C   0  0  0  0  0  0  0  0  0  0  0  0
    9.6988   -3.4443   -0.6871 C   0  0  0  0  0  0  0  0  0  0  0  0
   11.2126   -3.5722   -0.7372 C   0  0  0  0  0  0  0  0  0  0  0  0
   11.9039   -3.1232   -1.8449 N   0  0  0  0  0  0  0  0  0  0  0  0
   13.2956   -3.2496   -1.8891 C   0  0  0  0  0  0  0  0  0  0  0  0
   14.3135   -2.8929   -2.8761 N   0  0  0  0  0  0  0  0  0  0  0  0
   15.4727   -3.2397   -2.3982 C   0  0  0  0  0  0  0  0  0  0  0  0
   16.7136   -3.0575   -3.0639 O   0  0  0  0  0  0  0  0  0  0  0  0
   16.7479   -2.4565   -4.3500 C   0  0  0  0  0  0  0  0  0  0  0  0
   16.2354   -1.2166   -4.2946 C   0  0  0  0  0  0  0  0  0  0  0  0
   14.7966   -1.2720   -4.5033 O   0  0  0  0  0  0  0  0  0  0  0  0
   14.5159   -2.5783   -5.2703 C   0  0  0  0  0  0  0  0  0  0  0  0
   14.2021   -2.2504   -6.7152 C   0  0  0  0  0  0  0  0  0  0  0  0
   13.4349   -1.0593   -6.8097 O   0  0  0  0  0  0  0  0  0  0  0  0
   15.3936   -2.1136   -7.3596 C   0  0  0  0  0  0  0  0  0  0  0  0
   16.3875   -2.9884   -6.7564 O   0  0  0  0  0  0  0  0  0  0  0  0
   15.9095   -3.2660   -5.3185 C   0  0  0  0  0  0  0  0  0  0  0  0
   15.3201   -3.8178   -1.1344 N   0  0  0  0  0  0  0  0  0  0  0  0
   13.9796   -3.8309   -0.8069 C   0  0  0  0  0  0  0  0  0  0  0  0
   13.2669   -4.2763    0.3005 C   0  0  0  0  0  0  0  0  0  0  0  0
   11.8970   -4.1427    0.3362 C   0  0  0  0  0  0  0  0  0  0  0  0
   10.9922   -4.7024    1.7632 Cl  0  0  0  0  0  0  0  0  0  0  0  0
    9.0688   -2.7217    0.2877 C   0  0  0  0  0  0  0  0  0  0  0  0
    7.7174   -2.4809    0.2270 C   0  0  0  0  0  0  0  0  0  0  0  0
    4.8547   -1.6559   -0.6834 C   0  0  0  0  0  0  0  0  0  0  0  0
    3.4896   -1.5475   -0.7965 C   0  0  0  0  0  0  0  0  0  0  0  0
    0.1963   -3.9726   -0.2573 N   0  0  0  0  0  0  0  0  0  0  0  0
   -1.2654   -3.8244   -0.2103 C   0  0  0  0  0  0  0  0  0  0  0  0
    0.5514   -5.0246   -1.2206 C   0  0  0  0  0  0  0  0  0  0  0  0
    0.6775    0.6721    0.8736 H   0  0  0  0  0  0  0  0  0  0  0  0
    0.6775    0.4249   -0.8561 H   0  0  0  0  0  0  0  0  0  0  0  0
    2.1042    0.0492    0.0801 H   0  0  0  0  0  0  0  0  0  0  0  0
    2.7048   -4.7776   -1.0945 H   0  0  0  0  0  0  0  0  0  0  0  0
    5.1081   -4.8744   -0.3670 H   0  0  0  0  0  0  0  0  0  0  0  0
    7.0226   -3.9778   -2.6739 H   0  0  0  0  0  0  0  0  0  0  0  0
    9.3531   -4.7877   -2.1969 H   0  0  0  0  0  0  0  0  0  0  0  0
   17.7661   -2.4203   -4.6768 H   0  0  0  0  0  0  0  0  0  0  0  0
   16.4384   -0.7914   -3.3339 H   0  0  0  0  0  0  0  0  0  0  0  0
   16.6824   -0.6124   -5.0562 H   0  0  0  0  0  0  0  0  0  0  0  0
   13.7233   -3.1442   -4.8270 H   0  0  0  0  0  0  0  0  0  0  0  0
   13.6342   -3.0425   -7.1568 H   0  0  0  0  0  0  0  0  0  0  0  0
   13.9446   -0.3013   -6.4029 H   0  0  0  0  0  0  0  0  0  0  0  0
   15.7228   -1.0987   -7.2788 H   0  0  0  0  0  0  0  0  0  0  0  0
   15.2712   -2.3737   -8.3903 H   0  0  0  0  0  0  0  0  0  0  0  0
   15.9390   -4.3089   -5.0812 H   0  0  0  0  0  0  0  0  0  0  0  0
   16.0767   -4.1723   -0.5493 H   0  0  0  0  0  0  0  0  0  0  0  0
   13.7828   -4.7228    1.1247 H   0  0  0  0  0  0  0  0  0  0  0  0
    9.6363   -2.3382    1.1098 H   0  0  0  0  0  0  0  0  0  0  0  0
    7.2572   -1.8530    0.9610 H   0  0  0  0  0  0  0  0  0  0  0  0
    5.4488   -0.7701   -0.5982 H   0  0  0  0  0  0  0  0  0  0  0  0
    3.0390   -0.5799   -0.8711 H   0  0  0  0  0  0  0  0  0  0  0  0
   -1.6281   -3.5566   -1.1807 H   0  0  0  0  0  0  0  0  0  0  0  0
   -1.7083   -4.7500    0.0930 H   0  0  0  0  0  0  0  0  0  0  0  0
   -1.5239   -3.0586    0.4909 H   0  0  0  0  0  0  0  0  0  0  0  0
    0.1888   -4.7568   -2.1910 H   0  0  0  0  0  0  0  0  0  0  0  0
    1.6154   -5.1326   -1.2548 H   0  0  0  0  0  0  0  0  0  0  0  0
    0.1086   -5.9503   -0.9173 H   0  0  0  0  0  0  0  0  0  0  0  0
  1  2  1  0  0  0  0
  1 40  1  0  0  0  0
  1 41  1  0  0  0  0
  1 42  1  0  0  0  0
  2  3  2  0  0  0  0
  3  4  2  0  0  0  0
  3  5  1  0  0  0  0
  3 37  1  0  0  0  0
  5  6  1  0  0  0  0
  5 36  2  0  0  0  0
  6  7  2  0  0  0  0
  6 43  1  0  0  0  0
  7  8  1  0  0  0  0
  7 44  1  0  0  0  0
  8  9  1  0  0  0  0
  8 35  2  0  0  0  0
  9 10  1  0  0  0  0
  9 34  2  0  0  0  0
 10 11  2  0  0  0  0
 10 45  1  0  0  0  0
 11 12  1  0  0  0  0
 11 46  1  0  0  0  0
 12 13  1  0  0  0  0
 12 33  2  0  0  0  0
 13 14  1  0  0  0  0
 13 31  2  0  0  0  0
 14 15  2  0  0  0  0
 15 16  1  0  0  0  0
 15 29  1  0  0  0  0
 16 17  2  0  0  0  0
 17 18  1  0  0  0  0
 17 28  1  0  0  0  0
 18 19  1  0  0  0  0
 19 20  1  0  0  0  0
 19 27  1  0  0  0  0
 19 47  1  0  0  0  0
 20 21  1  0  0  0  0
 20 48  1  0  0  0  0
 20 49  1  0  0  0  0
 21 22  1  0  0  0  0
 22 23  1  0  0  0  0
 22 27  1  0  0  0  0
 22 50  1  0  0  0  0
 23 24  1  0  0  0  0
 23 25  1  0  0  0  0
 23 51  1  0  0  0  0
 24 52  1  0  0  0  0
 25 26  1  0  0  0  0
 25 53  1  0  0  0  0
 25 54  1  0  0  0  0
 26 27  1  0  0  0  0
 27 55  1  0  0  0  0
 28 29  1  0  0  0  0
 28 56  1  0  0  0  0
 29 30  2  0  0  0  0
 30 31  1  0  0  0  0
 30 57  1  0  0  0  0
 31 32  1  0  0  0  0
 33 34  1  0  0  0  0
 33 58  1  0  0  0  0
 34 59  1  0  0  0  0
 35 36  1  0  0  0  0
 35 60  1  0  0  0  0
 36 61  1  0  0  0  0
 37 38  1  0  0  0  0
 37 39  1  0  0  0  0
 38 62  1  0  0  0  0
 38 63  1  0  0  0  0
 38 64  1  0  0  0  0
 39 65  1  0  0  0  0
 39 66  1  0  0  0  0
 39 67  1  0  0  0  0
M  END
