
 OpenBabel03132512083D

 39 42  0  0  0  0  0  0  0  0999 V2000
    1.0466    0.0648   -0.0602 O   0  0  0  0  0  0  0  0  0  0  0  0
    2.3175    0.0648   -0.0602 C   0  0  0  0  0  0  0  0  0  0  0  0
    3.0275    1.0583   -0.7850 O   0  0  0  0  0  0  0  0  0  0  0  0
    3.0775   -0.9987    0.7155 C   0  0  0  0  0  0  0  0  0  0  0  0
    4.0284   -0.8648    1.5932 N   0  0  0  0  0  0  0  0  0  0  0  0
    4.3436   -2.1053    2.1560 N   0  0  0  0  0  0  0  0  0  0  0  0
    3.5364   -3.0714    1.5909 C   0  0  0  0  0  0  0  0  0  0  0  0
    3.4168   -4.4451    1.7678 C   0  0  0  0  0  0  0  0  0  0  0  0
    2.4875   -5.1540    1.0401 C   0  0  0  0  0  0  0  0  0  0  0  0
    2.3301   -6.9105    1.2818 Cl  0  0  0  0  0  0  0  0  0  0  0  0
    1.6685   -4.5066    0.1149 C   0  0  0  0  0  0  0  0  0  0  0  0
    0.6568   -5.3064   -0.6898 C   0  0  0  0  0  0  0  0  0  0  0  0
   -0.3549   -6.0255    0.0055 C   0  0  0  0  0  0  0  0  0  0  0  0
   -1.0514   -7.0494   -0.6572 C   0  0  0  0  0  0  0  0  0  0  0  0
   -0.9733   -7.1578   -1.9509 C   0  0  0  0  0  0  0  0  0  0  0  0
   -1.7185   -8.2734   -2.6655 C   0  0  0  0  0  0  0  0  0  0  0  0
   -0.4731   -8.9111   -3.2682 C   0  0  0  0  0  0  0  0  0  0  0  0
   -0.2521   -8.0893   -4.5411 C   0  0  0  0  0  0  0  0  0  0  0  0
   -1.5677   -7.6316   -4.9495 O   0  0  0  0  0  0  0  0  0  0  0  0
   -2.5219   -7.8812   -3.9093 C   0  0  0  0  0  0  0  0  0  0  0  0
   -0.2032   -6.2474   -2.6868 C   0  0  0  0  0  0  0  0  0  0  0  0
    0.7286   -5.4174   -2.0173 C   0  0  0  0  0  0  0  0  0  0  0  0
    1.7724   -3.1427   -0.0734 C   0  0  0  0  0  0  0  0  0  0  0  0
    2.7094   -2.4126    0.6641 C   0  0  0  0  0  0  0  0  0  0  0  0
    4.0275    1.0583   -0.7850 H   0  0  0  0  0  0  0  0  0  0  0  0
    5.0547   -2.2694    2.8686 H   0  0  0  0  0  0  0  0  0  0  0  0
    4.0466   -4.9512    2.4692 H   0  0  0  0  0  0  0  0  0  0  0  0
   -0.5830   -5.7886    1.0237 H   0  0  0  0  0  0  0  0  0  0  0  0
   -1.6465   -7.7404   -0.0975 H   0  0  0  0  0  0  0  0  0  0  0  0
   -2.4064   -8.7753   -2.0176 H   0  0  0  0  0  0  0  0  0  0  0  0
   -0.5822   -9.9590   -3.4546 H   0  0  0  0  0  0  0  0  0  0  0  0
    0.3624   -8.8264   -2.6051 H   0  0  0  0  0  0  0  0  0  0  0  0
    0.4145   -7.2699   -4.3703 H   0  0  0  0  0  0  0  0  0  0  0  0
    0.1850   -8.6969   -5.3058 H   0  0  0  0  0  0  0  0  0  0  0  0
   -3.2045   -8.6564   -4.1888 H   0  0  0  0  0  0  0  0  0  0  0  0
   -3.0962   -6.9995   -3.7153 H   0  0  0  0  0  0  0  0  0  0  0  0
   -0.3184   -6.1798   -3.7484 H   0  0  0  0  0  0  0  0  0  0  0  0
    1.4782   -4.8878   -2.5673 H   0  0  0  0  0  0  0  0  0  0  0  0
    1.1396   -2.6473   -0.7797 H   0  0  0  0  0  0  0  0  0  0  0  0
  1  2  2  0  0  0  0
  2  3  1  0  0  0  0
  2  4  1  0  0  0  0
  3 25  1  0  0  0  0
  4  5  2  0  0  0  0
  4 24  1  0  0  0  0
  5  6  1  0  0  0  0
  6  7  1  0  0  0  0
  6 26  1  0  0  0  0
  7  8  1  0  0  0  0
  7 24  2  0  0  0  0
  8  9  2  0  0  0  0
  8 27  1  0  0  0  0
  9 10  1  0  0  0  0
  9 11  1  0  0  0  0
 11 12  1  0  0  0  0
 11 23  2  0  0  0  0
 12 13  1  0  0  0  0
 12 22  2  0  0  0  0
 13 14  2  0  0  0  0
 13 28  1  0  0  0  0
 14 15  1  0  0  0  0
 14 29  1  0  0  0  0
 15 16  1  0  0  0  0
 15 21  2  0  0  0  0
 16 17  1  0  0  0  0
 16 20  1  0  0  0  0
 16 30  1  0  0  0  0
 17 18  1  0  0  0  0
 17 31  1  0  0  0  0
 17 32  1  0  0  0  0
 18 19  1  0  0  0  0
 18 33  1  0  0  0  0
 18 34  1  0  0  0  0
 19 20  1  0  0  0  0
 20 35  1  0  0  0  0
 20 36  1  0  0  0  0
 21 22  1  0  0  0  0
 21 37  1  0  0  0  0
 22 38  1  0  0  0  0
 23 24  1  0  0  0  0
 23 39  1  0  0  0  0
M  END
