
 OpenBabel03132512093D

 52 56  0  0  0  0  0  0  0  0999 V2000
    0.9675    0.0854   -0.0407 C   0  0  0  0  0  0  0  0  0  0  0  0
    0.4608    1.0939   -1.0588 C   0  0  0  0  0  0  0  0  0  0  0  0
    0.9508    0.7289   -2.3958 N   0  0  0  0  0  0  0  0  0  0  0  0
   -0.0044    0.4346   -3.4737 C   0  0  0  0  0  0  0  0  0  0  0  0
    0.4192    0.1191   -4.6296 O   0  0  0  0  0  0  0  0  0  0  0  0
   -1.4988    0.5078   -3.2057 C   0  0  0  0  0  0  0  0  0  0  0  0
   -2.4478   -0.4020   -3.5921 C   0  0  0  0  0  0  0  0  0  0  0  0
   -3.6740    0.0242   -3.1846 N   0  0  0  0  0  0  0  0  0  0  0  0
   -3.5768    1.2166   -2.4990 C   0  0  0  0  0  0  0  0  0  0  0  0
   -4.4632    2.0153   -1.9071 N   0  0  0  0  0  0  0  0  0  0  0  0
   -4.0730    3.1254   -1.2976 C   0  0  0  0  0  0  0  0  0  0  0  0
   -2.7163    3.4932   -1.2801 C   0  0  0  0  0  0  0  0  0  0  0  0
   -2.2696    4.7789   -0.6034 C   0  0  0  0  0  0  0  0  0  0  0  0
   -1.7984    5.8021   -1.2865 N   0  0  0  0  0  0  0  0  0  0  0  0
   -1.6131    6.8453   -0.4908 N   0  0  0  0  0  0  0  0  0  0  0  0
   -1.0983    8.1584   -0.9049 C   0  0  0  0  0  0  0  0  0  0  0  0
   -1.9710    6.5061    0.7467 C   0  0  0  0  0  0  0  0  0  0  0  0
   -2.0013    7.1673    1.9925 C   0  0  0  0  0  0  0  0  0  0  0  0
   -2.4380    6.5031    3.0845 C   0  0  0  0  0  0  0  0  0  0  0  0
   -2.4834    7.3442    4.6526 Cl  0  0  0  0  0  0  0  0  0  0  0  0
   -2.8436    5.2078    3.0146 C   0  0  0  0  0  0  0  0  0  0  0  0
   -2.8413    4.5252    1.8479 C   0  0  0  0  0  0  0  0  0  0  0  0
   -2.4029    5.1518    0.6797 C   0  0  0  0  0  0  0  0  0  0  0  0
   -1.8302    2.6914   -1.8692 N   0  0  0  0  0  0  0  0  0  0  0  0
   -2.2152    1.5724   -2.4777 C   0  0  0  0  0  0  0  0  0  0  0  0
   -1.0592    1.0939   -1.0588 C   0  0  0  0  0  0  0  0  0  0  0  0
   -1.6946    2.1584   -0.7790 O   0  0  0  0  0  0  0  0  0  0  0  0
   -1.7942   -0.1373   -1.3825 N   0  0  0  0  0  0  0  0  0  0  0  0
   -2.9597   -0.5560   -2.2952 C   0  0  0  0  0  0  0  0  0  0  0  0
   -3.1658   -1.7518   -1.3517 C   0  0  0  0  0  0  0  0  0  0  0  0
   -3.7585   -3.0647   -1.8369 C   0  0  0  0  0  0  0  0  0  0  0  0
   -4.2502   -4.1539   -2.2395 N   0  0  0  0  0  0  0  0  0  0  0  0
   -1.6794   -1.6194   -0.9811 C   0  0  0  0  0  0  0  0  0  0  0  0
    0.6108   -0.8903   -0.2972 H   0  0  0  0  0  0  0  0  0  0  0  0
    0.6108    0.3510    0.9325 H   0  0  0  0  0  0  0  0  0  0  0  0
    2.0375    0.0854   -0.0407 H   0  0  0  0  0  0  0  0  0  0  0  0
    0.8175    2.0696   -0.8023 H   0  0  0  0  0  0  0  0  0  0  0  0
    1.9536    0.6798   -2.5756 H   0  0  0  0  0  0  0  0  0  0  0  0
   -2.2546   -1.3065   -4.1303 H   0  0  0  0  0  0  0  0  0  0  0  0
   -4.5475   -0.4715   -3.3624 H   0  0  0  0  0  0  0  0  0  0  0  0
   -4.7971    3.7474   -0.8143 H   0  0  0  0  0  0  0  0  0  0  0  0
   -1.8287    8.9110   -0.6927 H   0  0  0  0  0  0  0  0  0  0  0  0
   -0.1979    8.3739   -0.3683 H   0  0  0  0  0  0  0  0  0  0  0  0
   -0.8934    8.1462   -1.9550 H   0  0  0  0  0  0  0  0  0  0  0  0
   -1.6815    8.1853    2.0716 H   0  0  0  0  0  0  0  0  0  0  0  0
   -3.1731    4.7158    3.9058 H   0  0  0  0  0  0  0  0  0  0  0  0
   -3.1741    3.5087    1.8197 H   0  0  0  0  0  0  0  0  0  0  0  0
   -3.7559    0.1153   -2.5410 H   0  0  0  0  0  0  0  0  0  0  0  0
   -2.6755   -0.8169   -3.2933 H   0  0  0  0  0  0  0  0  0  0  0  0
   -3.8456   -1.5731   -0.5449 H   0  0  0  0  0  0  0  0  0  0  0  0
   -0.9322   -2.2629   -1.3964 H   0  0  0  0  0  0  0  0  0  0  0  0
   -1.4585   -1.7879    0.0522 H   0  0  0  0  0  0  0  0  0  0  0  0
  1  2  1  0  0  0  0
  1 34  1  0  0  0  0
  1 35  1  0  0  0  0
  1 36  1  0  0  0  0
  2  3  1  0  0  0  0
  2 26  1  0  0  0  0
  2 37  1  0  0  0  0
  3  4  1  0  0  0  0
  3 38  1  0  0  0  0
  4  5  2  0  0  0  0
  4  6  1  0  0  0  0
  6  7  2  0  0  0  0
  6 25  1  0  0  0  0
  7  8  1  0  0  0  0
  7 39  1  0  0  0  0
  8  9  1  0  0  0  0
  8 40  1  0  0  0  0
  9 10  1  0  0  0  0
  9 25  2  0  0  0  0
 10 11  2  0  0  0  0
 11 12  1  0  0  0  0
 11 41  1  0  0  0  0
 12 13  1  0  0  0  0
 12 24  2  0  0  0  0
 13 14  2  0  0  0  0
 13 23  1  0  0  0  0
 14 15  1  0  0  0  0
 15 16  1  0  0  0  0
 15 17  1  0  0  0  0
 16 42  1  0  0  0  0
 16 43  1  0  0  0  0
 16 44  1  0  0  0  0
 17 18  1  0  0  0  0
 17 23  2  0  0  0  0
 18 19  2  0  0  0  0
 18 45  1  0  0  0  0
 19 20  1  0  0  0  0
 19 21  1  0  0  0  0
 21 22  2  0  0  0  0
 21 46  1  0  0  0  0
 22 23  1  0  0  0  0
 22 47  1  0  0  0  0
 24 25  1  0  0  0  0
 26 27  2  0  0  0  0
 26 28  1  0  0  0  0
 28 29  1  0  0  0  0
 28 33  1  0  0  0  0
 29 30  1  0  0  0  0
 29 48  1  0  0  0  0
 29 49  1  0  0  0  0
 30 31  1  0  0  0  0
 30 33  1  0  0  0  0
 30 50  1  0  0  0  0
 31 32  3  0  0  0  0
 33 51  1  0  0  0  0
 33 52  1  0  0  0  0
M  END
