
 OpenBabel03132512093D

 47 50  0  0  0  0  0  0  0  0999 V2000
    0.9644   -0.0131    0.0925 N   0  0  0  0  0  0  0  0  0  0  0  0
    0.3777   -0.2258    1.7382 S   0  0  0  0  0  0  0  0  0  0  0  0
    0.8878    0.9210    2.6139 O   0  0  0  0  0  0  0  0  0  0  0  0
   -1.1528   -0.2258    1.7382 O   0  0  0  0  0  0  0  0  0  0  0  0
    0.9810   -1.8009    2.3949 C   0  0  0  0  0  0  0  0  0  0  0  0
    0.6940   -2.9450    1.6689 C   0  0  0  0  0  0  0  0  0  0  0  0
    0.8244   -4.1427    2.4110 C   0  0  0  0  0  0  0  0  0  0  0  0
    1.4881   -4.2510    3.5476 C   0  0  0  0  0  0  0  0  0  0  0  0
    1.8018   -3.0813    4.1824 C   0  0  0  0  0  0  0  0  0  0  0  0
    2.4003   -3.1242    5.5790 C   0  0  0  0  0  0  0  0  0  0  0  0
    2.7236   -1.9388    6.2348 N   0  0  0  0  0  0  0  0  0  0  0  0
    3.2533   -1.9767    7.4710 N   0  0  0  0  0  0  0  0  0  0  0  0
    3.4909   -3.2694    8.1295 C   0  0  0  0  0  0  0  0  0  0  0  0
    3.2437   -3.4219    9.4838 C   0  0  0  0  0  0  0  0  0  0  0  0
    3.8946   -4.5365   10.0634 C   0  0  0  0  0  0  0  0  0  0  0  0
    4.3901   -5.5527    9.3810 C   0  0  0  0  0  0  0  0  0  0  0  0
    4.7538   -6.8193   10.0325 N   0  0  0  0  0  0  0  0  0  0  0  0
    4.5689   -6.9799   11.4819 C   0  0  0  0  0  0  0  0  0  0  0  0
    4.8834   -8.0750   12.0451 O   0  0  0  0  0  0  0  0  0  0  0  0
    4.0016   -5.8364   12.3071 C   0  0  0  0  0  0  0  0  0  0  0  0
    4.9103   -4.6240   12.1850 C   0  0  0  0  0  0  0  0  0  0  0  0
    6.2823   -4.8100   12.1430 C   0  0  0  0  0  0  0  0  0  0  0  0
    7.0277   -3.6210   12.3235 C   0  0  0  0  0  0  0  0  0  0  0  0
    6.5388   -2.4021   12.1851 C   0  0  0  0  0  0  0  0  0  0  0  0
    5.1761   -2.2922   12.1654 C   0  0  0  0  0  0  0  0  0  0  0  0
    4.3776   -3.4094   12.1205 C   0  0  0  0  0  0  0  0  0  0  0  0
    4.5467   -5.3635    8.0360 C   0  0  0  0  0  0  0  0  0  0  0  0
    4.0534   -4.2396    7.4184 C   0  0  0  0  0  0  0  0  0  0  0  0
    1.5839   -1.8677    3.5761 C   0  0  0  0  0  0  0  0  0  0  0  0
    0.6244    0.8745   -0.2776 H   0  0  0  0  0  0  0  0  0  0  0  0
    1.9844   -0.0131    0.0925 H   0  0  0  0  0  0  0  0  0  0  0  0
    0.4003   -2.9251    0.6402 H   0  0  0  0  0  0  0  0  0  0  0  0
    0.3525   -5.0217    2.0245 H   0  0  0  0  0  0  0  0  0  0  0  0
    1.7655   -5.2028    3.9500 H   0  0  0  0  0  0  0  0  0  0  0  0
    3.4901   -1.1086    7.9513 H   0  0  0  0  0  0  0  0  0  0  0  0
    2.6172   -2.7571   10.0411 H   0  0  0  0  0  0  0  0  0  0  0  0
    3.9921   -4.5574   11.1288 H   0  0  0  0  0  0  0  0  0  0  0  0
    5.1345   -7.5867    9.4788 H   0  0  0  0  0  0  0  0  0  0  0  0
    3.0249   -5.5877   11.9479 H   0  0  0  0  0  0  0  0  0  0  0  0
    3.9394   -6.1335   13.3331 H   0  0  0  0  0  0  0  0  0  0  0  0
    6.7371   -5.7661   11.9880 H   0  0  0  0  0  0  0  0  0  0  0  0
    8.0594   -3.7161   12.5909 H   0  0  0  0  0  0  0  0  0  0  0  0
    7.1748   -1.5466   12.0932 H   0  0  0  0  0  0  0  0  0  0  0  0
    4.7250   -1.3221   12.1852 H   0  0  0  0  0  0  0  0  0  0  0  0
    3.3168   -3.2998   12.0329 H   0  0  0  0  0  0  0  0  0  0  0  0
    5.0608   -6.1012    7.4560 H   0  0  0  0  0  0  0  0  0  0  0  0
    1.9028   -0.9684    4.0602 H   0  0  0  0  0  0  0  0  0  0  0  0
  1  2  1  0  0  0  0
  1 30  1  0  0  0  0
  1 31  1  0  0  0  0
  2  3  2  0  0  0  0
  2  4  2  0  0  0  0
  2  5  1  0  0  0  0
  5  6  1  0  0  0  0
  5 29  2  0  0  0  0
  6  7  2  0  0  0  0
  6 32  1  0  0  0  0
  7  8  1  0  0  0  0
  7 33  1  0  0  0  0
  8  9  2  0  0  0  0
  8 34  1  0  0  0  0
  9 10  1  0  0  0  0
  9 29  1  0  0  0  0
 10 11  2  0  0  0  0
 10 28  1  0  0  0  0
 11 12  1  0  0  0  0
 12 13  1  0  0  0  0
 12 35  1  0  0  0  0
 13 14  1  0  0  0  0
 13 28  2  0  0  0  0
 14 15  2  0  0  0  0
 14 36  1  0  0  0  0
 15 16  1  0  0  0  0
 15 37  1  0  0  0  0
 16 17  1  0  0  0  0
 16 27  2  0  0  0  0
 17 18  1  0  0  0  0
 17 38  1  0  0  0  0
 18 19  2  0  0  0  0
 18 20  1  0  0  0  0
 20 21  1  0  0  0  0
 20 39  1  0  0  0  0
 20 40  1  0  0  0  0
 21 22  1  0  0  0  0
 21 26  2  0  0  0  0
 22 23  2  0  0  0  0
 22 41  1  0  0  0  0
 23 24  1  0  0  0  0
 23 42  1  0  0  0  0
 24 25  2  0  0  0  0
 24 43  1  0  0  0  0
 25 26  1  0  0  0  0
 25 44  1  0  0  0  0
 26 45  1  0  0  0  0
 27 28  1  0  0  0  0
 27 46  1  0  0  0  0
 29 47  1  0  0  0  0
M  END
