
 OpenBabel03132512083D

 47 50  0  0  0  0  0  0  0  0999 V2000
    0.9796   -0.0901    0.0383 O   0  0  0  0  0  0  0  0  0  0  0  0
    2.2505   -0.0901    0.0383 C   0  0  0  0  0  0  0  0  0  0  0  0
    2.9605    0.6201   -0.9657 O   0  0  0  0  0  0  0  0  0  0  0  0
    3.0105   -0.8503    1.1129 C   0  0  0  0  0  0  0  0  0  0  0  0
    4.0051   -0.4147    1.9578 C   0  0  0  0  0  0  0  0  0  0  0  0
    4.2840   -1.3679    2.9007 N   0  0  0  0  0  0  0  0  0  0  0  0
    3.5023   -2.4731    2.6550 C   0  0  0  0  0  0  0  0  0  0  0  0
    3.4948   -3.7125    3.3040 C   0  0  0  0  0  0  0  0  0  0  0  0
    2.6397   -4.6633    2.7833 C   0  0  0  0  0  0  0  0  0  0  0  0
    2.5944   -6.2457    3.5188 Cl  0  0  0  0  0  0  0  0  0  0  0  0
    1.8177   -4.4304    1.6667 C   0  0  0  0  0  0  0  0  0  0  0  0
    0.9119   -5.5348    1.1469 C   0  0  0  0  0  0  0  0  0  0  0  0
    1.0492   -6.0516   -0.1309 C   0  0  0  0  0  0  0  0  0  0  0  0
   -0.0247   -6.8808   -0.5323 C   0  0  0  0  0  0  0  0  0  0  0  0
   -0.8965   -7.4297    0.2940 C   0  0  0  0  0  0  0  0  0  0  0  0
   -1.7470   -8.4916   -0.1129 O   0  0  0  0  0  0  0  0  0  0  0  0
   -2.6708   -9.0538    0.8073 C   0  0  0  0  0  0  0  0  0  0  0  0
   -1.9169   -9.6229    1.9982 C   0  0  0  0  0  0  0  0  0  0  0  0
   -1.1344   -8.5125    2.6802 C   0  0  0  0  0  0  0  0  0  0  0  0
   -2.0948   -7.4348    3.1565 C   0  0  0  0  0  0  0  0  0  0  0  0
   -2.1587   -7.1651    4.6698 C   0  0  0  0  0  0  0  0  0  0  0  0
   -2.4692   -5.7017    4.3163 O   0  0  0  0  0  0  0  0  0  0  0  0
   -1.7383   -5.9466    2.9859 C   0  0  0  0  0  0  0  0  0  0  0  0
   -0.9362   -6.9206    1.5623 C   0  0  0  0  0  0  0  0  0  0  0  0
   -0.0002   -6.0089    1.9874 C   0  0  0  0  0  0  0  0  0  0  0  0
    1.8328   -3.1946    1.0397 C   0  0  0  0  0  0  0  0  0  0  0  0
    2.6782   -2.1862    1.5361 C   0  0  0  0  0  0  0  0  0  0  0  0
    3.9605    0.6201   -0.9657 H   0  0  0  0  0  0  0  0  0  0  0  0
    4.4922    0.5355    1.8880 H   0  0  0  0  0  0  0  0  0  0  0  0
    4.9593   -1.2740    3.6594 H   0  0  0  0  0  0  0  0  0  0  0  0
    4.1147   -3.9116    4.1531 H   0  0  0  0  0  0  0  0  0  0  0  0
    1.8909   -5.8427   -0.7576 H   0  0  0  0  0  0  0  0  0  0  0  0
   -0.1384   -7.0768   -1.5781 H   0  0  0  0  0  0  0  0  0  0  0  0
   -3.3468   -8.2952    1.1426 H   0  0  0  0  0  0  0  0  0  0  0  0
   -3.2216   -9.8355    0.3272 H   0  0  0  0  0  0  0  0  0  0  0  0
   -2.6130  -10.0466    2.6917 H   0  0  0  0  0  0  0  0  0  0  0  0
   -1.2409  -10.3815    1.6630 H   0  0  0  0  0  0  0  0  0  0  0  0
   -0.6037   -8.9131    3.5185 H   0  0  0  0  0  0  0  0  0  0  0  0
   -0.4384   -8.0888    1.9868 H   0  0  0  0  0  0  0  0  0  0  0  0
   -2.9057   -7.8619    2.6043 H   0  0  0  0  0  0  0  0  0  0  0  0
   -2.7874   -7.7360    5.3207 H   0  0  0  0  0  0  0  0  0  0  0  0
   -1.2359   -7.3139    5.1906 H   0  0  0  0  0  0  0  0  0  0  0  0
   -0.7325   -5.6197    2.8232 H   0  0  0  0  0  0  0  0  0  0  0  0
   -2.1843   -5.4736    2.1360 H   0  0  0  0  0  0  0  0  0  0  0  0
   -1.7072   -7.2366    2.2335 H   0  0  0  0  0  0  0  0  0  0  0  0
   -0.0063   -5.6781    3.0049 H   0  0  0  0  0  0  0  0  0  0  0  0
    1.2097   -3.0102    0.1896 H   0  0  0  0  0  0  0  0  0  0  0  0
  1  2  2  0  0  0  0
  2  3  1  0  0  0  0
  2  4  1  0  0  0  0
  3 28  1  0  0  0  0
  4  5  2  0  0  0  0
  4 27  1  0  0  0  0
  5  6  1  0  0  0  0
  5 29  1  0  0  0  0
  6  7  1  0  0  0  0
  6 30  1  0  0  0  0
  7  8  1  0  0  0  0
  7 27  2  0  0  0  0
  8  9  2  0  0  0  0
  8 31  1  0  0  0  0
  9 10  1  0  0  0  0
  9 11  1  0  0  0  0
 11 12  1  0  0  0  0
 11 26  2  0  0  0  0
 12 13  1  0  0  0  0
 12 25  2  0  0  0  0
 13 14  2  0  0  0  0
 13 32  1  0  0  0  0
 14 15  1  0  0  0  0
 14 33  1  0  0  0  0
 15 16  1  0  0  0  0
 15 24  2  0  0  0  0
 16 17  1  0  0  0  0
 17 18  1  0  0  0  0
 17 34  1  0  0  0  0
 17 35  1  0  0  0  0
 18 19  1  0  0  0  0
 18 36  1  0  0  0  0
 18 37  1  0  0  0  0
 19 20  1  0  0  0  0
 19 38  1  0  0  0  0
 19 39  1  0  0  0  0
 20 21  1  0  0  0  0
 20 23  1  0  0  0  0
 20 40  1  0  0  0  0
 21 22  1  0  0  0  0
 21 41  1  0  0  0  0
 21 42  1  0  0  0  0
 22 23  1  0  0  0  0
 23 43  1  0  0  0  0
 23 44  1  0  0  0  0
 24 25  1  0  0  0  0
 24 45  1  0  0  0  0
 25 46  1  0  0  0  0
 26 27  1  0  0  0  0
 26 47  1  0  0  0  0
M  END
