
 OpenBabel03132514253D

 62 67  0  0  0  0  0  0  0  0999 V2000
    2.5670    1.2420    0.0540 C   0  0  0  0  0  0  0  0  0  0  0  0
    1.3430    0.3620   -0.0250 C   0  0  0  0  0  0  0  0  0  0  0  0
    1.4170   -1.0450   -0.0620 C   0  0  0  0  0  0  0  0  0  0  0  0
    2.7618   -1.7450   -0.1717 C   0  0  0  0  0  0  0  0  0  0  0  0
    3.7351   -1.5283    0.8566 C   0  0  0  0  0  0  0  0  0  0  0  0
    4.9486   -2.1072    0.7474 C   0  0  0  0  0  0  0  0  0  0  0  0
    5.9634   -1.8689    1.7840 N   0  0  0  0  0  0  0  0  0  0  0  0
    5.6529   -1.0039    2.9313 C   0  0  0  0  0  0  0  0  0  0  0  0
    4.6737   -1.1938    3.8375 C   0  0  0  0  0  0  0  0  0  0  0  0
    4.8698   -0.2698    4.8439 C   0  0  0  0  0  0  0  0  0  0  0  0
    5.9916    0.4655    4.4826 N   0  0  0  0  0  0  0  0  0  0  0  0
    6.4248   -0.0208    3.3164 N   0  0  0  0  0  0  0  0  0  0  0  0
    6.4242    1.4808    5.3202 C   0  0  0  0  0  0  0  0  0  0  0  0
    5.7599    1.7432    6.4616 C   0  0  0  0  0  0  0  0  0  0  0  0
    4.6739    1.0400    6.8231 N   0  0  0  0  0  0  0  0  0  0  0  0
    3.5769    2.0084    6.9636 C   0  0  0  0  0  0  0  0  0  0  0  0
    4.2048    0.0388    6.0499 C   0  0  0  0  0  0  0  0  0  0  0  0
    5.2615   -2.9565   -0.3736 C   0  0  0  0  0  0  0  0  0  0  0  0
    6.3489   -3.5057   -0.5769 O   0  0  0  0  0  0  0  0  0  0  0  0
    4.2056   -3.1236   -1.2692 N   0  0  0  0  0  0  0  0  0  0  0  0
    2.9842   -2.5172   -1.1948 N   0  0  0  0  0  0  0  0  0  0  0  0
    0.2310   -1.7880    0.0040 C   0  0  0  0  0  0  0  0  0  0  0  0
   -1.0460   -1.2140    0.0640 C   0  0  0  0  0  0  0  0  0  0  0  0
   -1.0490    0.1760    0.0110 C   0  0  0  0  0  0  0  0  0  0  0  0
   -2.2440    0.8300   -0.0180 F   0  0  0  0  0  0  0  0  0  0  0  0
    0.0860    0.9540   -0.0180 C   0  0  0  0  0  0  0  0  0  0  0  0
   -0.0323    2.4190   -0.0417 N   0  0  0  0  0  0  0  0  0  0  0  0
   -1.3602    3.0494   -0.0344 C   0  0  0  0  0  0  0  0  0  0  0  0
   -1.4625    4.3161   -0.0549 O   0  0  0  0  0  0  0  0  0  0  0  0
   -2.6110    2.1864   -0.0023 C   0  0  0  0  0  0  0  0  0  0  0  0
   -2.8222    1.1086    0.7916 C   0  0  0  0  0  0  0  0  0  0  0  0
   -4.0662    0.6626    0.4911 C   0  0  0  0  0  0  0  0  0  0  0  0
   -4.7350   -0.4653    1.0868 C   0  0  0  0  0  0  0  0  0  0  0  0
   -6.0645   -0.8207    0.6622 C   0  0  0  0  0  0  0  0  0  0  0  0
   -6.7333   -1.9485    1.2579 C   0  0  0  0  0  0  0  0  0  0  0  0
   -5.8482    1.3140   -1.0394 C   0  0  0  0  0  0  0  0  0  0  0  0
   -4.5462    1.4437   -0.4377 C   0  0  0  0  0  0  0  0  0  0  0  0
   -3.6799    2.3467   -0.7338 S   0  0  0  0  0  0  0  0  0  0  0  0
    2.5805    1.9101   -0.7817 H   0  0  0  0  0  0  0  0  0  0  0  0
    2.5418    1.8073    0.9621 H   0  0  0  0  0  0  0  0  0  0  0  0
    3.4462    0.6324    0.0376 H   0  0  0  0  0  0  0  0  0  0  0  0
    3.5022   -0.9145    1.7015 H   0  0  0  0  0  0  0  0  0  0  0  0
    6.8828   -2.3037    1.7072 H   0  0  0  0  0  0  0  0  0  0  0  0
    3.8922   -1.9228    3.7865 H   0  0  0  0  0  0  0  0  0  0  0  0
    6.2668    2.3637    4.7366 H   0  0  0  0  0  0  0  0  0  0  0  0
    7.4308    1.2452    5.5962 H   0  0  0  0  0  0  0  0  0  0  0  0
    5.3503    2.7129    6.2696 H   0  0  0  0  0  0  0  0  0  0  0  0
    6.4689    1.6312    7.2551 H   0  0  0  0  0  0  0  0  0  0  0  0
    3.2956    2.3714    5.9972 H   0  0  0  0  0  0  0  0  0  0  0  0
    2.7368    1.5314    7.4239 H   0  0  0  0  0  0  0  0  0  0  0  0
    3.8997    2.8272    7.5722 H   0  0  0  0  0  0  0  0  0  0  0  0
    4.3489   -0.8350    6.6504 H   0  0  0  0  0  0  0  0  0  0  0  0
    3.1955    0.2868    5.7956 H   0  0  0  0  0  0  0  0  0  0  0  0
    4.3600   -3.7579   -2.0529 H   0  0  0  0  0  0  0  0  0  0  0  0
    0.3046   -2.8555    0.0089 H   0  0  0  0  0  0  0  0  0  0  0  0
   -1.9412   -1.7947    0.1437 H   0  0  0  0  0  0  0  0  0  0  0  0
    0.8071    2.9982   -0.0632 H   0  0  0  0  0  0  0  0  0  0  0  0
   -2.1451    0.6943    1.5091 H   0  0  0  0  0  0  0  0  0  0  0  0
   -4.2441   -1.0392    1.8448 H   0  0  0  0  0  0  0  0  0  0  0  0
   -6.5554   -0.2468   -0.0958 H   0  0  0  0  0  0  0  0  0  0  0  0
   -6.2424   -2.5224    2.0159 H   0  0  0  0  0  0  0  0  0  0  0  0
   -6.1586    2.0031   -1.7969 H   0  0  0  0  0  0  0  0  0  0  0  0
  1  2  1  0  0  0  0
  1 39  1  0  0  0  0
  1 40  1  0  0  0  0
  1 41  1  0  0  0  0
  2  3  1  0  0  0  0
  2 26  2  0  0  0  0
  3  4  1  0  0  0  0
  3 22  2  0  0  0  0
  4  5  1  0  0  0  0
  4 21  2  0  0  0  0
  5  6  2  0  0  0  0
  5 42  1  0  0  0  0
  6  7  1  0  0  0  0
  6 18  1  0  0  0  0
  7  8  1  0  0  0  0
  7 43  1  0  0  0  0
  8  9  1  0  0  0  0
  8 12  2  0  0  0  0
  9 10  2  0  0  0  0
  9 44  1  0  0  0  0
 10 11  1  0  0  0  0
 10 17  1  0  0  0  0
 11 12  1  0  0  0  0
 11 13  1  0  0  0  0
 13 14  1  0  0  0  0
 13 45  1  0  0  0  0
 13 46  1  0  0  0  0
 14 15  1  0  0  0  0
 14 47  1  0  0  0  0
 14 48  1  0  0  0  0
 15 16  1  0  0  0  0
 15 17  1  0  0  0  0
 16 49  1  0  0  0  0
 16 50  1  0  0  0  0
 16 51  1  0  0  0  0
 17 52  1  0  0  0  0
 17 53  1  0  0  0  0
 18 19  2  0  0  0  0
 18 20  1  0  0  0  0
 20 21  1  0  0  0  0
 20 54  1  0  0  0  0
 22 23  1  0  0  0  0
 22 55  1  0  0  0  0
 23 24  2  0  0  0  0
 23 56  1  0  0  0  0
 24 25  1  0  0  0  0
 24 26  1  0  0  0  0
 26 27  1  0  0  0  0
 27 28  1  0  0  0  0
 27 57  1  0  0  0  0
 28 29  2  0  0  0  0
 28 30  1  0  0  0  0
 30 31  2  0  0  0  0
 30 38  1  0  0  0  0
 31 32  1  0  0  0  0
 31 58  1  0  0  0  0
 32 33  1  0  0  0  0
 32 37  2  0  0  0  0
 33 34  2  0  0  0  0
 33 59  1  0  0  0  0
 34 35  1  0  0  0  0
 34 60  1  0  0  0  0
 35 36  2  0  0  0  0
 35 61  1  0  0  0  0
 36 37  1  0  0  0  0
 36 62  1  0  0  0  0
 37 38  1  0  0  0  0
M  END
