
 OpenBabel03132514253D

 33 35  0  0  0  0  0  0  0  0999 V2000
    0.9254    0.0181   -0.0641 C   0  0  0  0  0  0  0  0  0  0  0  0
    0.4188   -1.1806    0.7212 C   0  0  0  0  0  0  0  0  0  0  0  0
    0.9254   -1.0999    2.1520 C   0  0  0  0  0  0  0  0  0  0  0  0
    1.0877    0.0999    2.7508 N   0  0  0  0  0  0  0  0  0  0  0  0
    1.5406    0.2022    4.0281 C   0  0  0  0  0  0  0  0  0  0  0  0
    1.8390   -0.8909    4.7651 C   0  0  0  0  0  0  0  0  0  0  0  0
    1.6933   -2.1629    4.2081 C   0  0  0  0  0  0  0  0  0  0  0  0
    1.2254   -2.2772    2.8689 C   0  0  0  0  0  0  0  0  0  0  0  0
    1.1823   -3.5810    2.5988 N   0  0  0  0  0  0  0  0  0  0  0  0
    1.5862   -4.2491    3.6693 C   0  0  0  0  0  0  0  0  0  0  0  0
    1.6776   -5.7635    3.7620 C   0  0  0  0  0  0  0  0  0  0  0  0
    2.6585   -6.9095    2.8097 N   0  0  0  0  0  0  0  0  0  0  0  0
    2.1648   -8.3809    3.5823 O   0  0  0  0  0  0  0  0  0  0  0  0
    1.2817   -7.9554    4.5255 N   0  0  0  0  0  0  0  0  0  0  0  0
    1.0197   -6.6134    4.6408 C   0  0  0  0  0  0  0  0  0  0  0  0
    0.0836   -6.0983    5.6503 N   0  0  0  0  0  0  0  0  0  0  0  0
    1.8973   -3.4171    4.6422 N   0  0  0  0  0  0  0  0  0  0  0  0
    2.3849   -3.7970    5.9759 C   0  0  0  0  0  0  0  0  0  0  0  0
    1.3467   -4.6665    6.6662 C   0  0  0  0  0  0  0  0  0  0  0  0
    0.5688    0.9188    0.3903 H   0  0  0  0  0  0  0  0  0  0  0  0
    0.5688   -0.0387   -1.0713 H   0  0  0  0  0  0  0  0  0  0  0  0
    1.9954    0.0181   -0.0641 H   0  0  0  0  0  0  0  0  0  0  0  0
   -0.6512   -1.1806    0.7212 H   0  0  0  0  0  0  0  0  0  0  0  0
    0.7754   -2.0813    0.2668 H   0  0  0  0  0  0  0  0  0  0  0  0
    1.6641    1.1727    4.4613 H   0  0  0  0  0  0  0  0  0  0  0  0
    2.1856   -0.7819    5.7715 H   0  0  0  0  0  0  0  0  0  0  0  0
   -0.3876   -6.7430    6.2849 H   0  0  0  0  0  0  0  0  0  0  0  0
   -0.0946   -5.0961    5.7163 H   0  0  0  0  0  0  0  0  0  0  0  0
    3.3000   -4.3431    5.8790 H   0  0  0  0  0  0  0  0  0  0  0  0
    2.5556   -2.9154    6.5578 H   0  0  0  0  0  0  0  0  0  0  0  0
    1.1760   -5.5481    6.0844 H   0  0  0  0  0  0  0  0  0  0  0  0
    1.7016   -4.9430    7.6370 H   0  0  0  0  0  0  0  0  0  0  0  0
    0.4317   -4.1204    6.7632 H   0  0  0  0  0  0  0  0  0  0  0  0
  1  2  1  0  0  0  0
  1 20  1  0  0  0  0
  1 21  1  0  0  0  0
  1 22  1  0  0  0  0
  2  3  1  0  0  0  0
  2 23  1  0  0  0  0
  2 24  1  0  0  0  0
  3  4  1  0  0  0  0
  3  8  2  0  0  0  0
  4  5  2  0  0  0  0
  5  6  1  0  0  0  0
  5 25  1  0  0  0  0
  6  7  2  0  0  0  0
  6 26  1  0  0  0  0
  7  8  1  0  0  0  0
  7 17  1  0  0  0  0
  8  9  1  0  0  0  0
  9 10  2  0  0  0  0
 10 11  1  0  0  0  0
 10 17  1  0  0  0  0
 11 12  2  0  0  0  0
 11 15  1  0  0  0  0
 12 13  1  0  0  0  0
 13 14  1  0  0  0  0
 14 15  2  0  0  0  0
 15 16  1  0  0  0  0
 16 27  1  0  0  0  0
 16 28  1  0  0  0  0
 17 18  1  0  0  0  0
 18 19  1  0  0  0  0
 18 29  1  0  0  0  0
 18 30  1  0  0  0  0
 19 31  1  0  0  0  0
 19 32  1  0  0  0  0
 19 33  1  0  0  0  0
M  END
