
 OpenBabel03132512093D

 56 58  0  0  0  0  0  0  0  0999 V2000
    1.0423   -0.0893   -0.0153 C   0  0  0  0  0  0  0  0  0  0  0  0
    0.5690    0.5498    1.1610 O   0  0  0  0  0  0  0  0  0  0  0  0
    0.9120    0.0314    2.4378 C   0  0  0  0  0  0  0  0  0  0  0  0
   -0.0537   -0.2172    3.3729 C   0  0  0  0  0  0  0  0  0  0  0  0
    0.2752   -0.8846    4.5740 C   0  0  0  0  0  0  0  0  0  0  0  0
   -0.7059   -1.1574    5.4930 N   0  0  0  0  0  0  0  0  0  0  0  0
   -0.3303   -1.7732    6.5800 C   0  0  0  0  0  0  0  0  0  0  0  0
    0.9405   -2.1620    6.9071 N   0  0  0  0  0  0  0  0  0  0  0  0
    1.8909   -1.8949    6.0442 C   0  0  0  0  0  0  0  0  0  0  0  0
    3.2746   -2.2721    6.3665 N   0  0  0  0  0  0  0  0  0  0  0  0
    3.5768   -2.9388    7.6413 C   0  0  0  0  0  0  0  0  0  0  0  0
    4.3168   -2.3150    8.6246 C   0  0  0  0  0  0  0  0  0  0  0  0
    4.4675   -2.8866    9.8814 C   0  0  0  0  0  0  0  0  0  0  0  0
    3.8566   -4.1116   10.1446 C   0  0  0  0  0  0  0  0  0  0  0  0
    3.1148   -4.7347    9.1587 C   0  0  0  0  0  0  0  0  0  0  0  0
    2.3174   -6.2347    9.4878 Cl  0  0  0  0  0  0  0  0  0  0  0  0
    2.9874   -4.1448    7.9216 C   0  0  0  0  0  0  0  0  0  0  0  0
    2.2436   -4.7506    6.9736 F   0  0  0  0  0  0  0  0  0  0  0  0
    1.6208   -1.2500    4.8037 C   0  0  0  0  0  0  0  0  0  0  0  0
    2.6040   -0.9689    3.8279 C   0  0  0  0  0  0  0  0  0  0  0  0
    2.2493   -0.3461    2.6654 C   0  0  0  0  0  0  0  0  0  0  0  0
    3.3051   -0.0585    1.6103 C   0  0  0  0  0  0  0  0  0  0  0  0
    4.3433    0.8120    2.1806 N   0  0  0  0  0  0  0  0  0  0  0  0
    5.3643    1.0901    1.1603 C   0  0  0  0  0  0  0  0  0  0  0  0
    4.7178    1.7839   -0.0276 C   0  0  0  0  0  0  0  0  0  0  0  0
    6.4379    1.9903    1.7499 C   0  0  0  0  0  0  0  0  0  0  0  0
    3.7352    2.0753    2.6224 C   0  0  0  0  0  0  0  0  0  0  0  0
    3.0886    2.7690    1.4345 C   0  0  0  0  0  0  0  0  0  0  0  0
    2.6794    1.7878    3.6774 C   0  0  0  0  0  0  0  0  0  0  0  0
    2.8100    2.3632    5.0238 N   0  0  0  0  0  0  0  0  0  0  0  0
    1.6839    1.0498    3.3955 O   0  0  0  0  0  0  0  0  0  0  0  0
    0.6857    0.4376   -0.8756 H   0  0  0  0  0  0  0  0  0  0  0  0
    0.6857   -1.0978   -0.0415 H   0  0  0  0  0  0  0  0  0  0  0  0
    2.1123   -0.0893   -0.0153 H   0  0  0  0  0  0  0  0  0  0  0  0
   -1.0617    0.0945    3.1947 H   0  0  0  0  0  0  0  0  0  0  0  0
   -1.0973   -1.9983    7.2914 H   0  0  0  0  0  0  0  0  0  0  0  0
    4.0251   -2.0712    5.7056 H   0  0  0  0  0  0  0  0  0  0  0  0
    4.7826   -1.3748    8.4153 H   0  0  0  0  0  0  0  0  0  0  0  0
    5.0439   -2.3941   10.6364 H   0  0  0  0  0  0  0  0  0  0  0  0
    3.9615   -4.5680   11.1066 H   0  0  0  0  0  0  0  0  0  0  0  0
    3.6238   -1.2435    3.9996 H   0  0  0  0  0  0  0  0  0  0  0  0
    3.7477   -0.9780    1.2888 H   0  0  0  0  0  0  0  0  0  0  0  0
    2.8499    0.4298    0.7741 H   0  0  0  0  0  0  0  0  0  0  0  0
    5.8070    0.1706    0.8387 H   0  0  0  0  0  0  0  0  0  0  0  0
    4.2751    2.7034    0.2939 H   0  0  0  0  0  0  0  0  0  0  0  0
    5.4610    1.9863   -0.7703 H   0  0  0  0  0  0  0  0  0  0  0  0
    3.9621    1.1502   -0.4427 H   0  0  0  0  0  0  0  0  0  0  0  0
    6.8930    1.5019    2.5861 H   0  0  0  0  0  0  0  0  0  0  0  0
    7.1811    2.1927    1.0072 H   0  0  0  0  0  0  0  0  0  0  0  0
    5.9952    2.9098    2.0715 H   0  0  0  0  0  0  0  0  0  0  0  0
    4.4909    2.7090    3.0374 H   0  0  0  0  0  0  0  0  0  0  0  0
    2.3329    2.1354    1.0194 H   0  0  0  0  0  0  0  0  0  0  0  0
    2.6460    3.6886    1.7560 H   0  0  0  0  0  0  0  0  0  0  0  0
    3.8318    2.9715    0.6918 H   0  0  0  0  0  0  0  0  0  0  0  0
    2.1015    2.1702    5.7318 H   0  0  0  0  0  0  0  0  0  0  0  0
    3.6090    2.9554    5.2500 H   0  0  0  0  0  0  0  0  0  0  0  0
  1  2  1  0  0  0  0
  1 32  1  0  0  0  0
  1 33  1  0  0  0  0
  1 34  1  0  0  0  0
  2  3  1  0  0  0  0
  3  4  1  0  0  0  0
  3 21  2  0  0  0  0
  4  5  2  0  0  0  0
  4 35  1  0  0  0  0
  5  6  1  0  0  0  0
  5 19  1  0  0  0  0
  6  7  2  0  0  0  0
  7  8  1  0  0  0  0
  7 36  1  0  0  0  0
  8  9  2  0  0  0  0
  9 10  1  0  0  0  0
  9 19  1  0  0  0  0
 10 11  1  0  0  0  0
 10 37  1  0  0  0  0
 11 12  1  0  0  0  0
 11 17  2  0  0  0  0
 12 13  2  0  0  0  0
 12 38  1  0  0  0  0
 13 14  1  0  0  0  0
 13 39  1  0  0  0  0
 14 15  2  0  0  0  0
 14 40  1  0  0  0  0
 15 16  1  0  0  0  0
 15 17  1  0  0  0  0
 17 18  1  0  0  0  0
 19 20  2  0  0  0  0
 20 21  1  0  0  0  0
 20 41  1  0  0  0  0
 21 22  1  0  0  0  0
 22 23  1  0  0  0  0
 22 42  1  0  0  0  0
 22 43  1  0  0  0  0
 23 24  1  0  0  0  0
 23 27  1  0  0  0  0
 24 25  1  0  0  0  0
 24 26  1  0  0  0  0
 24 44  1  0  0  0  0
 25 45  1  0  0  0  0
 25 46  1  0  0  0  0
 25 47  1  0  0  0  0
 26 48  1  0  0  0  0
 26 49  1  0  0  0  0
 26 50  1  0  0  0  0
 27 28  1  0  0  0  0
 27 29  1  0  0  0  0
 27 51  1  0  0  0  0
 28 52  1  0  0  0  0
 28 53  1  0  0  0  0
 28 54  1  0  0  0  0
 29 30  1  0  0  0  0
 29 31  2  0  0  0  0
 30 55  1  0  0  0  0
 30 56  1  0  0  0  0
M  END
