
 OpenBabel03132512093D

 55 58  0  0  0  0  0  0  0  0999 V2000
    1.0293   -0.0823   -0.0486 C   0  0  0  0  0  0  0  0  0  0  0  0
    0.5227    1.2549    0.4666 C   0  0  0  0  0  0  0  0  0  0  0  0
    1.0293    2.3697   -0.4339 C   0  0  0  0  0  0  0  0  0  0  0  0
   -0.8973    1.2549    0.4666 O   0  0  0  0  0  0  0  0  0  0  0  0
    1.0293    1.4774    1.8823 C   0  0  0  0  0  0  0  0  0  0  0  0
    1.3779    0.3871    2.6621 C   0  0  0  0  0  0  0  0  0  0  0  0
    1.5131    0.6864    4.0384 C   0  0  0  0  0  0  0  0  0  0  0  0
    1.6637    1.9033    4.5290 C   0  0  0  0  0  0  0  0  0  0  0  0
    2.1396    2.1395    5.9531 C   0  0  0  0  0  0  0  0  0  0  0  0
    3.3610    1.6277    6.3593 C   0  0  0  0  0  0  0  0  0  0  0  0
    3.5396    1.6165    7.7628 C   0  0  0  0  0  0  0  0  0  0  0  0
    4.5389    0.7971    8.2823 N   0  0  0  0  0  0  0  0  0  0  0  0
    4.7558    0.7496    9.6574 C   0  0  0  0  0  0  0  0  0  0  0  0
    5.7745   -0.0858   10.1870 O   0  0  0  0  0  0  0  0  0  0  0  0
    5.9956   -0.1343   11.5889 C   0  0  0  0  0  0  0  0  0  0  0  0
    6.1768   -1.5889   12.0289 C   0  0  0  0  0  0  0  0  0  0  0  0
    7.3320   -2.1385   11.3918 O   0  0  0  0  0  0  0  0  0  0  0  0
    8.5512   -1.4680   11.7163 C   0  0  0  0  0  0  0  0  0  0  0  0
    9.7098   -2.1516   11.0086 C   0  0  0  0  0  0  0  0  0  0  0  0
   10.9213   -1.4849   11.3313 O   0  0  0  0  0  0  0  0  0  0  0  0
    8.4661   -0.0084   11.2636 C   0  0  0  0  0  0  0  0  0  0  0  0
    8.3163    0.0462    9.8526 O   0  0  0  0  0  0  0  0  0  0  0  0
    7.2611    0.6568   11.9360 C   0  0  0  0  0  0  0  0  0  0  0  0
    3.2328    2.5240    9.9319 N   0  0  0  0  0  0  0  0  0  0  0  0
    2.8248    2.3290    8.6145 C   0  0  0  0  0  0  0  0  0  0  0  0
    1.6625    2.8650    8.1335 C   0  0  0  0  0  0  0  0  0  0  0  0
    1.3556    2.8015    6.7958 C   0  0  0  0  0  0  0  0  0  0  0  0
   -0.1064    3.6141    6.1868 Cl  0  0  0  0  0  0  0  0  0  0  0  0
    1.3684    2.9392    3.6869 C   0  0  0  0  0  0  0  0  0  0  0  0
    1.0975    2.7150    2.3586 C   0  0  0  0  0  0  0  0  0  0  0  0
    0.6727   -0.2389   -1.0452 H   0  0  0  0  0  0  0  0  0  0  0  0
    0.6727   -0.8671    0.5853 H   0  0  0  0  0  0  0  0  0  0  0  0
    2.0993   -0.0823   -0.0486 H   0  0  0  0  0  0  0  0  0  0  0  0
    0.6726    2.2131   -1.4305 H   0  0  0  0  0  0  0  0  0  0  0  0
    0.6726    3.3111   -0.0713 H   0  0  0  0  0  0  0  0  0  0  0  0
    2.0993    2.3697   -0.4339 H   0  0  0  0  0  0  0  0  0  0  0  0
   -1.2307    1.1086   -0.4648 H   0  0  0  0  0  0  0  0  0  0  0  0
    1.5311   -0.5927    2.2603 H   0  0  0  0  0  0  0  0  0  0  0  0
    1.4918   -0.1299    4.7299 H   0  0  0  0  0  0  0  0  0  0  0  0
    4.1021    1.2730    5.6738 H   0  0  0  0  0  0  0  0  0  0  0  0
    5.1543    0.2925   12.0937 H   0  0  0  0  0  0  0  0  0  0  0  0
    6.3025   -1.6275   13.0908 H   0  0  0  0  0  0  0  0  0  0  0  0
    5.3127   -2.1558   11.7515 H   0  0  0  0  0  0  0  0  0  0  0  0
    8.7080   -1.5048   12.7741 H   0  0  0  0  0  0  0  0  0  0  0  0
    9.7689   -3.1720   11.3252 H   0  0  0  0  0  0  0  0  0  0  0  0
    9.5532   -2.1149    9.9508 H   0  0  0  0  0  0  0  0  0  0  0  0
   10.8660   -0.5313   11.0354 H   0  0  0  0  0  0  0  0  0  0  0  0
    9.3616    0.5061   11.5435 H   0  0  0  0  0  0  0  0  0  0  0  0
    7.4801   -0.4339    9.5874 H   0  0  0  0  0  0  0  0  0  0  0  0
    7.1641    1.6641   11.5884 H   0  0  0  0  0  0  0  0  0  0  0  0
    7.4005    0.6628   12.9968 H   0  0  0  0  0  0  0  0  0  0  0  0
    2.6592    3.0794   10.5666 H   0  0  0  0  0  0  0  0  0  0  0  0
    0.9822    3.3408    8.8086 H   0  0  0  0  0  0  0  0  0  0  0  0
    1.3479    3.9389    4.0678 H   0  0  0  0  0  0  0  0  0  0  0  0
    0.9401    3.5452    1.7022 H   0  0  0  0  0  0  0  0  0  0  0  0
  1  2  1  0  0  0  0
  1 31  1  0  0  0  0
  1 32  1  0  0  0  0
  1 33  1  0  0  0  0
  2  3  1  0  0  0  0
  2  4  1  0  0  0  0
  2  5  1  0  0  0  0
  3 34  1  0  0  0  0
  3 35  1  0  0  0  0
  3 36  1  0  0  0  0
  4 37  1  0  0  0  0
  5  6  1  0  0  0  0
  5 30  2  0  0  0  0
  6  7  2  0  0  0  0
  6 38  1  0  0  0  0
  7  8  1  0  0  0  0
  7 39  1  0  0  0  0
  8  9  1  0  0  0  0
  8 29  2  0  0  0  0
  9 10  1  0  0  0  0
  9 27  2  0  0  0  0
 10 11  2  0  0  0  0
 10 40  1  0  0  0  0
 11 12  1  0  0  0  0
 11 25  1  0  0  0  0
 12 13  2  0  0  0  0
 13 14  1  0  0  0  0
 13 24  1  0  0  0  0
 14 15  1  0  0  0  0
 15 16  1  0  0  0  0
 15 23  1  0  0  0  0
 15 41  1  0  0  0  0
 16 17  1  0  0  0  0
 16 42  1  0  0  0  0
 16 43  1  0  0  0  0
 17 18  1  0  0  0  0
 18 19  1  0  0  0  0
 18 21  1  0  0  0  0
 18 44  1  0  0  0  0
 19 20  1  0  0  0  0
 19 45  1  0  0  0  0
 19 46  1  0  0  0  0
 20 47  1  0  0  0  0
 21 22  1  0  0  0  0
 21 23  1  0  0  0  0
 21 48  1  0  0  0  0
 22 49  1  0  0  0  0
 23 50  1  0  0  0  0
 23 51  1  0  0  0  0
 24 25  1  0  0  0  0
 24 52  1  0  0  0  0
 25 26  2  0  0  0  0
 26 27  1  0  0  0  0
 26 53  1  0  0  0  0
 27 28  1  0  0  0  0
 29 30  1  0  0  0  0
 29 54  1  0  0  0  0
 30 55  1  0  0  0  0
M  END
