
 OpenBabel03132512093D

 52 53  0  0  0  0  0  0  0  0999 V2000
    0.9324    0.0158   -0.0719 O   0  0  0  0  0  0  0  0  0  0  0  0
    2.2033    0.0158   -0.0719 C   0  0  0  0  0  0  0  0  0  0  0  0
    2.9633   -1.0916    0.6398 C   0  0  0  0  0  0  0  0  0  0  0  0
    4.3237   -1.0916    0.6398 C   0  0  0  0  0  0  0  0  0  0  0  0
    5.0837   -2.1990    1.3514 C   0  0  0  0  0  0  0  0  0  0  0  0
    4.6226   -3.5017    1.1329 C   0  0  0  0  0  0  0  0  0  0  0  0
    5.2223   -4.5463    1.8568 C   0  0  0  0  0  0  0  0  0  0  0  0
    6.2551   -4.3050    2.7473 C   0  0  0  0  0  0  0  0  0  0  0  0
    6.8507   -5.2985    3.4724 O   0  0  0  0  0  0  0  0  0  0  0  0
    6.7055   -2.9975    2.9474 C   0  0  0  0  0  0  0  0  0  0  0  0
    7.7422   -2.7139    3.7801 O   0  0  0  0  0  0  0  0  0  0  0  0
    6.1080   -1.9623    2.2501 C   0  0  0  0  0  0  0  0  0  0  0  0
    2.9133    1.0503   -0.7368 O   0  0  0  0  0  0  0  0  0  0  0  0
    4.3333    1.0503   -0.7368 C   0  0  0  0  0  0  0  0  0  0  0  0
    4.8399    1.1185    0.6946 C   0  0  0  0  0  0  0  0  0  0  0  0
    5.5706    0.1862    1.1552 O   0  0  0  0  0  0  0  0  0  0  0  0
    4.4969    2.2239    1.5173 O   0  0  0  0  0  0  0  0  0  0  0  0
    4.8399   -0.2235   -1.3935 C   0  0  0  0  0  0  0  0  0  0  0  0
    4.3666   -0.2872   -2.7307 O   0  0  0  0  0  0  0  0  0  0  0  0
    2.9705   -0.2995   -2.9899 C   0  0  0  0  0  0  0  0  0  0  0  0
    2.1446   -0.2536   -2.0250 O   0  0  0  0  0  0  0  0  0  0  0  0
    2.4638   -0.3678   -4.4214 C   0  0  0  0  0  0  0  0  0  0  0  0
    3.3479   -0.4170   -5.4542 C   0  0  0  0  0  0  0  0  0  0  0  0
    2.8412   -0.4852   -6.8856 C   0  0  0  0  0  0  0  0  0  0  0  0
    1.8001    0.3543   -7.2964 C   0  0  0  0  0  0  0  0  0  0  0  0
    1.3562    0.2564   -8.6261 C   0  0  0  0  0  0  0  0  0  0  0  0
    1.9410   -0.6279   -9.5173 C   0  0  0  0  0  0  0  0  0  0  0  0
    1.5245   -0.7526  -10.8128 O   0  0  0  0  0  0  0  0  0  0  0  0
    2.9837   -1.4540   -9.0893 C   0  0  0  0  0  0  0  0  0  0  0  0
    3.6164   -2.3094   -9.9356 O   0  0  0  0  0  0  0  0  0  0  0  0
    3.4143   -1.3742   -7.7767 C   0  0  0  0  0  0  0  0  0  0  0  0
    6.3599   -0.2235   -1.3935 C   0  0  0  0  0  0  0  0  0  0  0  0
    6.9954   -1.1494   -0.7984 O   0  0  0  0  0  0  0  0  0  0  0  0
    7.0699    0.8111   -2.0583 O   0  0  0  0  0  0  0  0  0  0  0  0
    2.4283   -1.8712    1.1407 H   0  0  0  0  0  0  0  0  0  0  0  0
    4.8587   -0.3121    0.1388 H   0  0  0  0  0  0  0  0  0  0  0  0
    3.8358   -3.6971    0.4345 H   0  0  0  0  0  0  0  0  0  0  0  0
    4.8739   -5.5483    1.7170 H   0  0  0  0  0  0  0  0  0  0  0  0
    6.5560   -6.2471    3.3571 H   0  0  0  0  0  0  0  0  0  0  0  0
    8.1870   -3.4483    4.2927 H   0  0  0  0  0  0  0  0  0  0  0  0
    6.4450   -0.9593    2.4092 H   0  0  0  0  0  0  0  0  0  0  0  0
    4.6899    1.8990   -1.2822 H   0  0  0  0  0  0  0  0  0  0  0  0
    4.8302    2.2688    2.4591 H   0  0  0  0  0  0  0  0  0  0  0  0
    4.4833   -1.0721   -0.8480 H   0  0  0  0  0  0  0  0  0  0  0  0
    1.4118   -0.3771   -4.6167 H   0  0  0  0  0  0  0  0  0  0  0  0
    4.3998   -0.4077   -5.2589 H   0  0  0  0  0  0  0  0  0  0  0  0
    1.3546    1.0510   -6.6175 H   0  0  0  0  0  0  0  0  0  0  0  0
    0.5502    0.8776   -8.9568 H   0  0  0  0  0  0  0  0  0  0  0  0
    0.7809   -0.1790  -11.1564 H   0  0  0  0  0  0  0  0  0  0  0  0
    3.3199   -2.3813  -10.8879 H   0  0  0  0  0  0  0  0  0  0  0  0
    4.2060   -2.0128   -7.4446 H   0  0  0  0  0  0  0  0  0  0  0  0
    8.0699    0.8111   -2.0583 H   0  0  0  0  0  0  0  0  0  0  0  0
  1  2  2  0  0  0  0
  2  3  1  0  0  0  0
  2 13  1  0  0  0  0
  3  4  2  0  0  0  0
  3 35  1  0  0  0  0
  4  5  1  0  0  0  0
  4 36  1  0  0  0  0
  5  6  1  0  0  0  0
  5 12  2  0  0  0  0
  6  7  2  0  0  0  0
  6 37  1  0  0  0  0
  7  8  1  0  0  0  0
  7 38  1  0  0  0  0
  8  9  1  0  0  0  0
  8 10  2  0  0  0  0
  9 39  1  0  0  0  0
 10 11  1  0  0  0  0
 10 12  1  0  0  0  0
 11 40  1  0  0  0  0
 12 41  1  0  0  0  0
 13 14  1  0  0  0  0
 14 15  1  0  0  0  0
 14 18  1  0  0  0  0
 14 42  1  0  0  0  0
 15 16  2  0  0  0  0
 15 17  1  0  0  0  0
 17 43  1  0  0  0  0
 18 19  1  0  0  0  0
 18 32  1  0  0  0  0
 18 44  1  0  0  0  0
 19 20  1  0  0  0  0
 20 21  2  0  0  0  0
 20 22  1  0  0  0  0
 22 23  2  0  0  0  0
 22 45  1  0  0  0  0
 23 24  1  0  0  0  0
 23 46  1  0  0  0  0
 24 25  1  0  0  0  0
 24 31  2  0  0  0  0
 25 26  2  0  0  0  0
 25 47  1  0  0  0  0
 26 27  1  0  0  0  0
 26 48  1  0  0  0  0
 27 28  1  0  0  0  0
 27 29  2  0  0  0  0
 28 49  1  0  0  0  0
 29 30  1  0  0  0  0
 29 31  1  0  0  0  0
 30 50  1  0  0  0  0
 31 51  1  0  0  0  0
 32 33  2  0  0  0  0
 32 34  1  0  0  0  0
 34 52  1  0  0  0  0
M  END
