
 OpenBabel03132514253D

100107  0  0  0  0  0  0  0  0999 V2000
    1.0407   -0.0903    0.0138 C   0  0  0  0  0  0  0  0  0  0  0  0
    0.5340    0.8378   -1.0781 C   0  0  0  0  0  0  0  0  0  0  0  0
    1.7761    1.5071   -1.5228 C   0  0  0  0  0  0  0  0  0  0  0  0
    1.7496    2.9600   -1.0452 C   0  0  0  0  0  0  0  0  0  0  0  0
    2.4958    6.8965   -3.8738 O   0  0  0  0  0  0  0  0  0  0  0  0
    1.6935    6.0447   -3.0694 C   0  0  0  0  0  0  0  0  0  0  0  0
    1.9807    5.2181   -1.8135 O   0  0  0  0  0  0  0  0  0  0  0  0
    1.9980    3.8301   -2.1511 C   0  0  0  0  0  0  0  0  0  0  0  0
    0.8730    3.6059   -3.1485 C   0  0  0  0  0  0  0  0  0  0  0  0
    1.0947    4.4853   -4.3683 C   0  0  0  0  0  0  0  0  0  0  0  0
    0.8553    2.1464   -3.5726 C   0  0  0  0  0  0  0  0  0  0  0  0
   -0.3683    3.9384   -2.5444 O   0  0  0  0  0  0  0  0  0  0  0  0
   -0.2003    0.0658   -2.1031 C   0  0  0  0  0  0  0  0  0  0  0  0
   -1.6812    0.4454   -2.0363 C   0  0  0  0  0  0  0  0  0  0  0  0
   -2.4165   -0.3650   -0.9813 C   0  0  0  0  0  0  0  0  0  0  0  0
   -2.1272    0.8506   -3.3330 C   0  0  0  0  0  0  0  0  0  0  0  0
   -3.5235    1.1444   -3.4013 C   0  0  0  0  0  0  0  0  0  0  0  0
   -3.7969    2.0470   -4.6058 C   0  0  0  0  0  0  0  0  0  0  0  0
   -2.1632    3.6041   -3.8148 C   0  0  0  0  0  0  0  0  0  0  0  0
   -3.6134    3.4129   -4.2280 C   0  0  0  0  0  0  0  0  0  0  0  0
   -4.5860    3.6904   -3.0933 C   0  0  0  0  0  0  0  0  0  0  0  0
   -4.3011    2.7436   -1.9388 C   0  0  0  0  0  0  0  0  0  0  0  0
   -2.8778    2.9554   -1.4493 C   0  0  0  0  0  0  0  0  0  0  0  0
   -2.6117    2.0709   -0.3707 O   0  0  0  0  0  0  0  0  0  0  0  0
   -3.5203    2.3301    0.6892 C   0  0  0  0  0  0  0  0  0  0  0  0
   -3.8581    3.8225    0.7208 O   0  0  0  0  0  0  0  0  0  0  0  0
   -4.4863    4.1943   -0.5079 C   0  0  0  0  0  0  0  0  0  0  0  0
   -5.7150    3.5117   -0.7643 C   0  0  0  0  0  0  0  0  0  0  0  0
   -6.2658    3.9719   -1.9896 O   0  0  0  0  0  0  0  0  0  0  0  0
   -5.4524    2.0067   -0.8559 C   0  0  0  0  0  0  0  0  0  0  0  0
   -4.5842    1.7388   -1.9472 O   0  0  0  0  0  0  0  0  0  0  0  0
   -4.8042    1.5295    0.4475 C   0  0  0  0  0  0  0  0  0  0  0  0
   -4.4959    0.1468    0.3513 O   0  0  0  0  0  0  0  0  0  0  0  0
   -5.3992    4.3024   -5.5779 C   0  0  0  0  0  0  0  0  0  0  0  0
   -5.7166    5.2966   -6.6830 C   0  0  0  0  0  0  0  0  0  0  0  0
   -5.7795    2.9023   -6.0313 C   0  0  0  0  0  0  0  0  0  0  0  0
   -3.9119    4.3479   -5.2673 C   0  0  0  0  0  0  0  0  0  0  0  0
   -3.5291    5.7574   -4.8108 C   0  0  0  0  0  0  0  0  0  0  0  0
   -2.1053    5.8671   -4.7494 C   0  0  0  0  0  0  0  0  0  0  0  0
   -1.6412    7.1059   -4.2080 C   0  0  0  0  0  0  0  0  0  0  0  0
   -0.1112    7.1250   -4.2186 C   0  0  0  0  0  0  0  0  0  0  0  0
    0.5661    8.1374   -5.1278 C   0  0  0  0  0  0  0  0  0  0  0  0
    0.3791    6.5997   -2.9832 C   0  0  0  0  0  0  0  0  0  0  0  0
    0.4506    7.6873   -2.0731 O   0  0  0  0  0  0  0  0  0  0  0  0
    0.6840   -1.0826   -0.1677 H   0  0  0  0  0  0  0  0  0  0  0  0
    0.6840    0.2487    0.9640 H   0  0  0  0  0  0  0  0  0  0  0  0
    2.1107   -0.0903    0.0138 H   0  0  0  0  0  0  0  0  0  0  0  0
   -0.1910    1.5672   -0.7827 H   0  0  0  0  0  0  0  0  0  0  0  0
    2.6272    1.0046   -1.1130 H   0  0  0  0  0  0  0  0  0  0  0  0
    1.8368    1.4803   -2.5907 H   0  0  0  0  0  0  0  0  0  0  0  0
    0.7898    3.1804   -0.6267 H   0  0  0  0  0  0  0  0  0  0  0  0
    2.9601    3.5940   -2.5555 H   0  0  0  0  0  0  0  0  0  0  0  0
    2.0300    4.2347   -4.8234 H   0  0  0  0  0  0  0  0  0  0  0  0
    0.3028    4.3275   -5.0704 H   0  0  0  0  0  0  0  0  0  0  0  0
    1.1072    5.5127   -4.0697 H   0  0  0  0  0  0  0  0  0  0  0  0
    0.6993    1.5273   -2.7139 H   0  0  0  0  0  0  0  0  0  0  0  0
    0.0634    1.9886   -4.2747 H   0  0  0  0  0  0  0  0  0  0  0  0
    1.7907    1.8958   -4.0277 H   0  0  0  0  0  0  0  0  0  0  0  0
   -1.1084    3.7910   -3.2006 H   0  0  0  0  0  0  0  0  0  0  0  0
   -0.0987   -0.9423   -2.4472 H   0  0  0  0  0  0  0  0  0  0  0  0
   -2.0197   -0.1354   -0.0145 H   0  0  0  0  0  0  0  0  0  0  0  0
   -3.4581   -0.1214   -1.0064 H   0  0  0  0  0  0  0  0  0  0  0  0
   -2.2894   -1.4086   -1.1805 H   0  0  0  0  0  0  0  0  0  0  0  0
   -1.6083    1.7558   -3.5701 H   0  0  0  0  0  0  0  0  0  0  0  0
   -1.9153    0.0613   -4.0236 H   0  0  0  0  0  0  0  0  0  0  0  0
   -4.0747    0.2333   -3.5062 H   0  0  0  0  0  0  0  0  0  0  0  0
   -3.8270    1.6440   -2.5051 H   0  0  0  0  0  0  0  0  0  0  0  0
   -2.0222    4.6037   -3.4602 H   0  0  0  0  0  0  0  0  0  0  0  0
   -1.9199    2.9118   -3.0361 H   0  0  0  0  0  0  0  0  0  0  0  0
   -4.4693    4.7013   -2.7627 H   0  0  0  0  0  0  0  0  0  0  0  0
   -5.5880    3.5412   -3.4380 H   0  0  0  0  0  0  0  0  0  0  0  0
   -4.9858    2.9389   -1.1401 H   0  0  0  0  0  0  0  0  0  0  0  0
   -4.4179    1.7327   -2.2695 H   0  0  0  0  0  0  0  0  0  0  0  0
   -2.1931    2.7601   -2.2480 H   0  0  0  0  0  0  0  0  0  0  0  0
   -3.0787    2.0453    1.6213 H   0  0  0  0  0  0  0  0  0  0  0  0
   -3.8126    3.9228   -1.2936 H   0  0  0  0  0  0  0  0  0  0  0  0
   -4.6853    5.2452   -0.4791 H   0  0  0  0  0  0  0  0  0  0  0  0
   -6.4038    3.7059    0.0312 H   0  0  0  0  0  0  0  0  0  0  0  0
   -5.6223    3.7905   -2.7333 H   0  0  0  0  0  0  0  0  0  0  0  0
   -6.3774    1.4902   -1.0058 H   0  0  0  0  0  0  0  0  0  0  0  0
   -3.7184    2.2201   -1.8104 H   0  0  0  0  0  0  0  0  0  0  0  0
   -5.4811    1.6829    1.2618 H   0  0  0  0  0  0  0  0  0  0  0  0
   -3.8631   -0.0016   -0.4088 H   0  0  0  0  0  0  0  0  0  0  0  0
   -5.1609    5.0429   -7.5614 H   0  0  0  0  0  0  0  0  0  0  0  0
   -6.7636    5.2645   -6.9016 H   0  0  0  0  0  0  0  0  0  0  0  0
   -5.4489    6.2821   -6.3638 H   0  0  0  0  0  0  0  0  0  0  0  0
   -5.2237    2.6486   -6.9098 H   0  0  0  0  0  0  0  0  0  0  0  0
   -5.5560    2.2024   -5.2534 H   0  0  0  0  0  0  0  0  0  0  0  0
   -6.8264    2.8703   -6.2500 H   0  0  0  0  0  0  0  0  0  0  0  0
   -3.3562    4.0942   -6.1457 H   0  0  0  0  0  0  0  0  0  0  0  0
   -3.9127    6.4745   -5.5061 H   0  0  0  0  0  0  0  0  0  0  0  0
   -3.9434    5.9436   -3.8420 H   0  0  0  0  0  0  0  0  0  0  0  0
   -1.7629    5.0945   -4.0931 H   0  0  0  0  0  0  0  0  0  0  0  0
   -1.7168    5.7667   -5.7413 H   0  0  0  0  0  0  0  0  0  0  0  0
   -1.8055    8.1296   -3.9435 H   0  0  0  0  0  0  0  0  0  0  0  0
    0.7238    9.0495   -4.5910 H   0  0  0  0  0  0  0  0  0  0  0  0
    1.5078    7.7489   -5.4552 H   0  0  0  0  0  0  0  0  0  0  0  0
   -0.0564    8.3266   -5.9773 H   0  0  0  0  0  0  0  0  0  0  0  0
   -0.2897    5.8317   -2.6549 H   0  0  0  0  0  0  0  0  0  0  0  0
    1.0860    8.3748   -2.4246 H   0  0  0  0  0  0  0  0  0  0  0  0
  1  2  1  0  0  0  0
  1 45  1  0  0  0  0
  1 46  1  0  0  0  0
  1 47  1  0  0  0  0
  2  3  1  0  0  0  0
  2 13  1  0  0  0  0
  2 48  1  0  0  0  0
  3  4  1  0  0  0  0
  3 49  1  0  0  0  0
  3 50  1  0  0  0  0
  4  5  1  0  0  0  0
  4  8  1  0  0  0  0
  4 51  1  0  0  0  0
  5  6  1  0  0  0  0
  6  7  1  0  0  0  0
  6 13  1  0  0  0  0
  6 43  1  0  0  0  0
  7  8  1  0  0  0  0
  8  9  1  0  0  0  0
  8 52  1  0  0  0  0
  9 10  1  0  0  0  0
  9 11  1  0  0  0  0
  9 12  1  0  0  0  0
 10 53  1  0  0  0  0
 10 54  1  0  0  0  0
 10 55  1  0  0  0  0
 11 56  1  0  0  0  0
 11 57  1  0  0  0  0
 11 58  1  0  0  0  0
 12 59  1  0  0  0  0
 13 14  1  0  0  0  0
 13 60  1  0  0  0  0
 14 15  1  0  0  0  0
 14 16  1  0  0  0  0
 14 41  1  0  0  0  0
 15 61  1  0  0  0  0
 15 62  1  0  0  0  0
 15 63  1  0  0  0  0
 16 17  1  0  0  0  0
 16 64  1  0  0  0  0
 16 65  1  0  0  0  0
 17 18  1  0  0  0  0
 17 66  1  0  0  0  0
 17 67  1  0  0  0  0
 18 19  1  0  0  0  0
 18 20  1  0  0  0  0
 18 40  1  0  0  0  0
 19 20  1  0  0  0  0
 19 68  1  0  0  0  0
 19 69  1  0  0  0  0
 20 21  1  0  0  0  0
 20 37  1  0  0  0  0
 21 22  1  0  0  0  0
 21 70  1  0  0  0  0
 21 71  1  0  0  0  0
 22 23  1  0  0  0  0
 22 72  1  0  0  0  0
 22 73  1  0  0  0  0
 23 24  1  0  0  0  0
 23 34  1  0  0  0  0
 23 74  1  0  0  0  0
 24 25  1  0  0  0  0
 25 26  1  0  0  0  0
 25 32  1  0  0  0  0
 25 75  1  0  0  0  0
 26 27  1  0  0  0  0
 27 28  1  0  0  0  0
 27 76  1  0  0  0  0
 27 77  1  0  0  0  0
 28 29  1  0  0  0  0
 28 30  1  0  0  0  0
 28 78  1  0  0  0  0
 29 79  1  0  0  0  0
 30 31  1  0  0  0  0
 30 32  1  0  0  0  0
 30 80  1  0  0  0  0
 31 81  1  0  0  0  0
 32 33  1  0  0  0  0
 32 82  1  0  0  0  0
 33 83  1  0  0  0  0
 34 35  1  0  0  0  0
 34 36  1  0  0  0  0
 34 37  1  0  0  0  0
 35 84  1  0  0  0  0
 35 85  1  0  0  0  0
 35 86  1  0  0  0  0
 36 87  1  0  0  0  0
 36 88  1  0  0  0  0
 36 89  1  0  0  0  0
 37 38  1  0  0  0  0
 37 90  1  0  0  0  0
 38 39  1  0  0  0  0
 38 91  1  0  0  0  0
 38 92  1  0  0  0  0
 39 40  1  0  0  0  0
 39 93  1  0  0  0  0
 39 94  1  0  0  0  0
 40 41  1  0  0  0  0
 40 95  1  0  0  0  0
 41 42  1  0  0  0  0
 41 43  1  0  0  0  0
 42 96  1  0  0  0  0
 42 97  1  0  0  0  0
 42 98  1  0  0  0  0
 43 44  1  0  0  0  0
 43 99  1  0  0  0  0
 44100  1  0  0  0  0
M  END
