
 OpenBabel03132512093D

 43 44  0  0  0  0  0  0  0  0999 V2000
    0.9192    0.0336   -0.0484 C   0  0  0  0  0  0  0  0  0  0  0  0
    0.4459    0.7865    1.0586 O   0  0  0  0  0  0  0  0  0  0  0  0
   -0.1052    0.2047    2.1479 C   0  0  0  0  0  0  0  0  0  0  0  0
   -0.3715    1.0092    3.2302 C   0  0  0  0  0  0  0  0  0  0  0  0
   -0.9586    0.4757    4.3611 C   0  0  0  0  0  0  0  0  0  0  0  0
   -1.2623   -0.8630    4.4183 C   0  0  0  0  0  0  0  0  0  0  0  0
   -1.9194   -1.4387    5.6621 C   0  0  0  0  0  0  0  0  0  0  0  0
   -2.2061   -0.6287    6.7168 C   0  0  0  0  0  0  0  0  0  0  0  0
   -2.8632   -1.2044    7.9606 C   0  0  0  0  0  0  0  0  0  0  0  0
   -2.4152   -2.4049    8.5215 C   0  0  0  0  0  0  0  0  0  0  0  0
   -3.1400   -2.9262    9.6131 C   0  0  0  0  0  0  0  0  0  0  0  0
   -2.7668   -4.0686   10.2332 O   0  0  0  0  0  0  0  0  0  0  0  0
   -1.6054   -4.7633    9.8030 C   0  0  0  0  0  0  0  0  0  0  0  0
   -4.2723   -2.2964   10.0717 C   0  0  0  0  0  0  0  0  0  0  0  0
   -5.0164   -2.8638   11.1398 O   0  0  0  0  0  0  0  0  0  0  0  0
   -4.5906   -4.0814   11.7335 C   0  0  0  0  0  0  0  0  0  0  0  0
   -4.6871   -1.1118    9.4946 C   0  0  0  0  0  0  0  0  0  0  0  0
   -5.8466   -0.4546    9.9846 O   0  0  0  0  0  0  0  0  0  0  0  0
   -6.2758    0.7631    9.3936 C   0  0  0  0  0  0  0  0  0  0  0  0
   -3.9827   -0.5668    8.4485 C   0  0  0  0  0  0  0  0  0  0  0  0
   -0.9729   -1.6850    3.3513 C   0  0  0  0  0  0  0  0  0  0  0  0
   -0.3788   -1.1780    2.1908 C   0  0  0  0  0  0  0  0  0  0  0  0
   -0.0627   -2.0249    1.0958 O   0  0  0  0  0  0  0  0  0  0  0  0
    0.5625    0.4723   -0.9568 H   0  0  0  0  0  0  0  0  0  0  0  0
    0.5625   -0.9725    0.0259 H   0  0  0  0  0  0  0  0  0  0  0  0
    1.9892    0.0336   -0.0484 H   0  0  0  0  0  0  0  0  0  0  0  0
   -0.1237    2.0495    3.1967 H   0  0  0  0  0  0  0  0  0  0  0  0
   -1.1779    1.1077    5.1962 H   0  0  0  0  0  0  0  0  0  0  0  0
   -2.1566   -2.4811    5.7082 H   0  0  0  0  0  0  0  0  0  0  0  0
   -1.9690    0.4137    6.6708 H   0  0  0  0  0  0  0  0  0  0  0  0
   -1.5538   -2.9094    8.1363 H   0  0  0  0  0  0  0  0  0  0  0  0
   -1.7208   -5.0509    8.7789 H   0  0  0  0  0  0  0  0  0  0  0  0
   -0.7518   -4.1255    9.9004 H   0  0  0  0  0  0  0  0  0  0  0  0
   -1.4686   -5.6368   10.4056 H   0  0  0  0  0  0  0  0  0  0  0  0
   -4.5731   -4.8528   10.9922 H   0  0  0  0  0  0  0  0  0  0  0  0
   -3.6090   -3.9556   12.1405 H   0  0  0  0  0  0  0  0  0  0  0  0
   -5.2687   -4.3533   12.5153 H   0  0  0  0  0  0  0  0  0  0  0  0
   -5.5031    1.4973    9.4883 H   0  0  0  0  0  0  0  0  0  0  0  0
   -6.4888    0.6012    8.3576 H   0  0  0  0  0  0  0  0  0  0  0  0
   -7.1587    1.1086    9.8895 H   0  0  0  0  0  0  0  0  0  0  0  0
   -4.3044    0.3554    8.0116 H   0  0  0  0  0  0  0  0  0  0  0  0
   -1.2061   -2.7275    3.4113 H   0  0  0  0  0  0  0  0  0  0  0  0
    0.3618   -1.6432    0.2747 H   0  0  0  0  0  0  0  0  0  0  0  0
  1  2  1  0  0  0  0
  1 24  1  0  0  0  0
  1 25  1  0  0  0  0
  1 26  1  0  0  0  0
  2  3  1  0  0  0  0
  3  4  1  0  0  0  0
  3 22  2  0  0  0  0
  4  5  2  0  0  0  0
  4 27  1  0  0  0  0
  5  6  1  0  0  0  0
  5 28  1  0  0  0  0
  6  7  1  0  0  0  0
  6 21  2  0  0  0  0
  7  8  2  0  0  0  0
  7 29  1  0  0  0  0
  8  9  1  0  0  0  0
  8 30  1  0  0  0  0
  9 10  1  0  0  0  0
  9 20  2  0  0  0  0
 10 11  2  0  0  0  0
 10 31  1  0  0  0  0
 11 12  1  0  0  0  0
 11 14  1  0  0  0  0
 12 13  1  0  0  0  0
 13 32  1  0  0  0  0
 13 33  1  0  0  0  0
 13 34  1  0  0  0  0
 14 15  1  0  0  0  0
 14 17  2  0  0  0  0
 15 16  1  0  0  0  0
 16 35  1  0  0  0  0
 16 36  1  0  0  0  0
 16 37  1  0  0  0  0
 17 18  1  0  0  0  0
 17 20  1  0  0  0  0
 18 19  1  0  0  0  0
 19 38  1  0  0  0  0
 19 39  1  0  0  0  0
 19 40  1  0  0  0  0
 20 41  1  0  0  0  0
 21 22  1  0  0  0  0
 21 42  1  0  0  0  0
 22 23  1  0  0  0  0
 23 43  1  0  0  0  0
M  END
