
 OpenBabel03132512093D

 82 85  0  0  0  0  0  0  0  0999 V2000
    0.9150   -0.0227    0.0475 C   0  0  0  0  0  0  0  0  0  0  0  0
    0.4416    0.4322   -1.2117 O   0  0  0  0  0  0  0  0  0  0  0  0
    0.7847    1.7309   -1.6721 C   0  0  0  0  0  0  0  0  0  0  0  0
   -0.1435    2.6191   -2.1900 C   0  0  0  0  0  0  0  0  0  0  0  0
    0.4317    3.7609   -2.7961 C   0  0  0  0  0  0  0  0  0  0  0  0
    1.6725    4.1681   -2.5998 C   0  0  0  0  0  0  0  0  0  0  0  0
    2.1297    5.5628   -2.9949 C   0  0  0  0  0  0  0  0  0  0  0  0
    1.9399    5.7534   -4.4909 C   0  0  0  0  0  0  0  0  0  0  0  0
    0.4692    5.5899   -4.8843 C   0  0  0  0  0  0  0  0  0  0  0  0
    0.4780    5.0594   -6.2354 O   0  0  0  0  0  0  0  0  0  0  0  0
    1.8033    4.6482   -6.5955 C   0  0  0  0  0  0  0  0  0  0  0  0
    2.6313    4.6685   -5.3069 C   0  0  0  0  0  0  0  0  0  0  0  0
    4.1100    4.9327   -5.5392 C   0  0  0  0  0  0  0  0  0  0  0  0
    4.8329    4.9765   -4.2029 C   0  0  0  0  0  0  0  0  0  0  0  0
    5.5039    6.1297   -3.8308 C   0  0  0  0  0  0  0  0  0  0  0  0
    6.3705    5.9575   -2.7256 C   0  0  0  0  0  0  0  0  0  0  0  0
    6.3142    4.9443   -1.8805 C   0  0  0  0  0  0  0  0  0  0  0  0
    6.9810    4.9775   -0.6272 O   0  0  0  0  0  0  0  0  0  0  0  0
    6.8947    3.8662    0.2526 C   0  0  0  0  0  0  0  0  0  0  0  0
    5.4397    3.6204    0.6171 C   0  0  0  0  0  0  0  0  0  0  0  0
    4.6432    3.3307   -0.6446 C   0  0  0  0  0  0  0  0  0  0  0  0
    4.1624    1.8742   -0.6255 C   0  0  0  0  0  0  0  0  0  0  0  0
    3.2856    1.5530   -1.8302 C   0  0  0  0  0  0  0  0  0  0  0  0
    2.0992    2.5001   -1.9174 C   0  0  0  0  0  0  0  0  0  0  0  0
    1.2709    2.3148   -0.7790 O   0  0  0  0  0  0  0  0  0  0  0  0
    2.0148    2.5934    0.3980 C   0  0  0  0  0  0  0  0  0  0  0  0
    2.5851    3.9435   -1.9521 C   0  0  0  0  0  0  0  0  0  0  0  0
    1.4494    4.7958   -1.9355 O   0  0  0  0  0  0  0  0  0  0  0  0
    0.7063    4.5710   -0.7466 C   0  0  0  0  0  0  0  0  0  0  0  0
    3.4459    4.2726   -0.7411 C   0  0  0  0  0  0  0  0  0  0  0  0
    5.5793    3.8617   -2.2771 C   0  0  0  0  0  0  0  0  0  0  0  0
    5.6115    2.6722   -1.5022 O   0  0  0  0  0  0  0  0  0  0  0  0
    4.8522    1.5418   -1.9048 C   0  0  0  0  0  0  0  0  0  0  0  0
    4.8101    3.9081   -3.4147 C   0  0  0  0  0  0  0  0  0  0  0  0
    2.5238    3.2677   -2.0219 C   0  0  0  0  0  0  0  0  0  0  0  0
    2.0586    2.0747   -1.5236 C   0  0  0  0  0  0  0  0  0  0  0  0
    2.9483    1.2015   -0.8436 O   0  0  0  0  0  0  0  0  0  0  0  0
    2.4744   -0.0330   -0.3261 C   0  0  0  0  0  0  0  0  0  0  0  0
    0.5583   -1.0158    0.2250 H   0  0  0  0  0  0  0  0  0  0  0  0
    0.5583    0.6276    0.8187 H   0  0  0  0  0  0  0  0  0  0  0  0
    1.9850   -0.0227    0.0475 H   0  0  0  0  0  0  0  0  0  0  0  0
   -1.1997    2.4565   -2.1365 H   0  0  0  0  0  0  0  0  0  0  0  0
   -0.1812    4.3343   -3.4598 H   0  0  0  0  0  0  0  0  0  0  0  0
    1.5508    6.2911   -2.4663 H   0  0  0  0  0  0  0  0  0  0  0  0
    3.1641    5.6823   -2.7485 H   0  0  0  0  0  0  0  0  0  0  0  0
    2.3341    6.7283   -4.6888 H   0  0  0  0  0  0  0  0  0  0  0  0
   -0.0492    4.9409   -4.2098 H   0  0  0  0  0  0  0  0  0  0  0  0
   -0.0308    6.5355   -4.8586 H   0  0  0  0  0  0  0  0  0  0  0  0
    2.2224    5.2986   -7.3346 H   0  0  0  0  0  0  0  0  0  0  0  0
    1.7846    3.6607   -7.0072 H   0  0  0  0  0  0  0  0  0  0  0  0
    2.5919    3.7235   -4.8065 H   0  0  0  0  0  0  0  0  0  0  0  0
    4.5217    4.1503   -6.1420 H   0  0  0  0  0  0  0  0  0  0  0  0
    4.2303    5.8702   -6.0407 H   0  0  0  0  0  0  0  0  0  0  0  0
    5.3782    7.0659   -4.3335 H   0  0  0  0  0  0  0  0  0  0  0  0
    7.1239    6.6998   -2.5634 H   0  0  0  0  0  0  0  0  0  0  0  0
    7.2932    2.9980   -0.2294 H   0  0  0  0  0  0  0  0  0  0  0  0
    7.4554    4.0701    1.1408 H   0  0  0  0  0  0  0  0  0  0  0  0
    5.3746    2.7830    1.2801 H   0  0  0  0  0  0  0  0  0  0  0  0
    5.0411    4.4886    1.0991 H   0  0  0  0  0  0  0  0  0  0  0  0
    5.2708    3.4859   -1.4972 H   0  0  0  0  0  0  0  0  0  0  0  0
    5.0227    1.2389   -0.6607 H   0  0  0  0  0  0  0  0  0  0  0  0
    3.5981    1.7072    0.2682 H   0  0  0  0  0  0  0  0  0  0  0  0
    2.9145    0.5553   -1.7217 H   0  0  0  0  0  0  0  0  0  0  0  0
    3.8707    1.6440   -2.7214 H   0  0  0  0  0  0  0  0  0  0  0  0
    1.5444    2.2916   -2.8082 H   0  0  0  0  0  0  0  0  0  0  0  0
    2.8531    1.9310    0.4553 H   0  0  0  0  0  0  0  0  0  0  0  0
    2.3612    3.6054    0.3698 H   0  0  0  0  0  0  0  0  0  0  0  0
    1.3906    2.4539    1.2558 H   0  0  0  0  0  0  0  0  0  0  0  0
    3.1624    4.0945   -2.8403 H   0  0  0  0  0  0  0  0  0  0  0  0
    0.3868    3.5503   -0.7133 H   0  0  0  0  0  0  0  0  0  0  0  0
    1.3215    4.7800    0.1035 H   0  0  0  0  0  0  0  0  0  0  0  0
   -0.1495    5.2132   -0.7341 H   0  0  0  0  0  0  0  0  0  0  0  0
    2.8506    4.1563    0.1403 H   0  0  0  0  0  0  0  0  0  0  0  0
    3.7992    5.2789   -0.8268 H   0  0  0  0  0  0  0  0  0  0  0  0
    3.8148    1.8018   -1.9362 H   0  0  0  0  0  0  0  0  0  0  0  0
    5.1704    1.2260   -2.8764 H   0  0  0  0  0  0  0  0  0  0  0  0
    4.9994    0.7457   -1.2051 H   0  0  0  0  0  0  0  0  0  0  0  0
    4.1871    3.0758   -3.6677 H   0  0  0  0  0  0  0  0  0  0  0  0
    3.5673    3.4953   -1.9567 H   0  0  0  0  0  0  0  0  0  0  0  0
    1.6993    0.1535    0.3876 H   0  0  0  0  0  0  0  0  0  0  0  0
    2.0871   -0.6297   -1.1254 H   0  0  0  0  0  0  0  0  0  0  0  0
    3.2795   -0.5531    0.1494 H   0  0  0  0  0  0  0  0  0  0  0  0
  1  2  1  0  0  0  0
  1 39  1  0  0  0  0
  1 40  1  0  0  0  0
  1 41  1  0  0  0  0
  2  3  1  0  0  0  0
  3  4  1  0  0  0  0
  3 36  2  0  0  0  0
  4  5  2  0  0  0  0
  4 42  1  0  0  0  0
  5  6  1  0  0  0  0
  5 43  1  0  0  0  0
  6  7  1  0  0  0  0
  6 35  2  0  0  0  0
  7  8  1  0  0  0  0
  7 44  1  0  0  0  0
  7 45  1  0  0  0  0
  8  9  1  0  0  0  0
  8 12  1  0  0  0  0
  8 46  1  0  0  0  0
  9 10  1  0  0  0  0
  9 47  1  0  0  0  0
  9 48  1  0  0  0  0
 10 11  1  0  0  0  0
 11 12  1  0  0  0  0
 11 49  1  0  0  0  0
 11 50  1  0  0  0  0
 12 13  1  0  0  0  0
 12 51  1  0  0  0  0
 13 14  1  0  0  0  0
 13 52  1  0  0  0  0
 13 53  1  0  0  0  0
 14 15  1  0  0  0  0
 14 34  2  0  0  0  0
 15 16  2  0  0  0  0
 15 54  1  0  0  0  0
 16 17  1  0  0  0  0
 16 55  1  0  0  0  0
 17 18  1  0  0  0  0
 17 31  2  0  0  0  0
 18 19  1  0  0  0  0
 19 20  1  0  0  0  0
 19 56  1  0  0  0  0
 19 57  1  0  0  0  0
 20 21  1  0  0  0  0
 20 58  1  0  0  0  0
 20 59  1  0  0  0  0
 21 22  1  0  0  0  0
 21 30  1  0  0  0  0
 21 60  1  0  0  0  0
 22 23  1  0  0  0  0
 22 61  1  0  0  0  0
 22 62  1  0  0  0  0
 23 24  1  0  0  0  0
 23 63  1  0  0  0  0
 23 64  1  0  0  0  0
 24 25  1  0  0  0  0
 24 27  1  0  0  0  0
 24 65  1  0  0  0  0
 25 26  1  0  0  0  0
 26 66  1  0  0  0  0
 26 67  1  0  0  0  0
 26 68  1  0  0  0  0
 27 28  1  0  0  0  0
 27 30  1  0  0  0  0
 27 69  1  0  0  0  0
 28 29  1  0  0  0  0
 29 70  1  0  0  0  0
 29 71  1  0  0  0  0
 29 72  1  0  0  0  0
 30 73  1  0  0  0  0
 30 74  1  0  0  0  0
 31 32  1  0  0  0  0
 31 34  1  0  0  0  0
 32 33  1  0  0  0  0
 33 75  1  0  0  0  0
 33 76  1  0  0  0  0
 33 77  1  0  0  0  0
 34 78  1  0  0  0  0
 35 36  1  0  0  0  0
 35 79  1  0  0  0  0
 36 37  1  0  0  0  0
 37 38  1  0  0  0  0
 38 80  1  0  0  0  0
 38 81  1  0  0  0  0
 38 82  1  0  0  0  0
M  END
