
 OpenBabel03132512093D

 82 86  0  0  0  0  0  0  0  0999 V2000
    1.0465   -0.0845    0.0264 C   0  0  0  0  0  0  0  0  0  0  0  0
    0.5398    0.6769   -1.1877 C   0  0  0  0  0  0  0  0  0  0  0  0
   -0.5990    0.0730   -1.8583 C   0  0  0  0  0  0  0  0  0  0  0  0
   -0.3369   -0.7153   -2.9124 C   0  0  0  0  0  0  0  0  0  0  0  0
   -1.4674   -1.3746   -3.6592 C   0  0  0  0  0  0  0  0  0  0  0  0
   -2.5073   -2.4793   -3.5669 C   0  0  0  0  0  0  0  0  0  0  0  0
   -2.5704   -3.2074   -2.5272 O   0  0  0  0  0  0  0  0  0  0  0  0
   -3.4083   -2.6978   -4.6425 O   0  0  0  0  0  0  0  0  0  0  0  0
   -1.2534   -1.2020   -5.1644 C   0  0  0  0  0  0  0  0  0  0  0  0
   -2.1051   -0.0379   -5.6675 C   0  0  0  0  0  0  0  0  0  0  0  0
   -1.1913    1.0941   -6.1410 C   0  0  0  0  0  0  0  0  0  0  0  0
   -0.5027    0.4499   -7.3331 C   0  0  0  0  0  0  0  0  0  0  0  0
   -0.1756    3.7386   -2.6123 C   0  0  0  0  0  0  0  0  0  0  0  0
    0.2234    4.0259   -3.8267 C   0  0  0  0  0  0  0  0  0  0  0  0
   -0.7667    4.5233   -4.8483 C   0  0  0  0  0  0  0  0  0  0  0  0
   -0.8014    3.5592   -6.0366 C   0  0  0  0  0  0  0  0  0  0  0  0
    0.5799    2.9598   -6.2441 C   0  0  0  0  0  0  0  0  0  0  0  0
    1.3098    4.1653   -6.8138 C   0  0  0  0  0  0  0  0  0  0  0  0
    1.0599    2.4093   -4.8991 C   0  0  0  0  0  0  0  0  0  0  0  0
    0.4442    1.1425   -4.6565 C   0  0  0  0  0  0  0  0  0  0  0  0
   -0.9591    1.3502   -4.7195 O   0  0  0  0  0  0  0  0  0  0  0  0
    0.7575    0.1458   -5.6311 C   0  0  0  0  0  0  0  0  0  0  0  0
    0.1199   -1.0742   -5.2829 O   0  0  0  0  0  0  0  0  0  0  0  0
    0.2654    0.6049   -7.0057 C   0  0  0  0  0  0  0  0  0  0  0  0
   -1.2469    0.7561   -6.9832 C   0  0  0  0  0  0  0  0  0  0  0  0
    0.6505   -0.4260   -8.0543 C   0  0  0  0  0  0  0  0  0  0  0  0
    0.9129    1.9504   -7.3477 C   0  0  0  0  0  0  0  0  0  0  0  0
    0.3802    2.4524   -8.6799 C   0  0  0  0  0  0  0  0  0  0  0  0
   -2.1550    2.4332   -4.2758 C   0  0  0  0  0  0  0  0  0  0  0  0
   -1.8062    2.4406   -5.7552 C   0  0  0  0  0  0  0  0  0  0  0  0
   -3.0667    2.6745   -6.5718 C   0  0  0  0  0  0  0  0  0  0  0  0
    0.8143    3.2416   -1.5916 C   0  0  0  0  0  0  0  0  0  0  0  0
    0.2070    2.0989   -0.8173 C   0  0  0  0  0  0  0  0  0  0  0  0
    0.8169    2.2514    0.5666 C   0  0  0  0  0  0  0  0  0  0  0  0
    0.6898   -1.0926   -0.0104 H   0  0  0  0  0  0  0  0  0  0  0  0
    0.6898    0.3877    0.9179 H   0  0  0  0  0  0  0  0  0  0  0  0
    2.1165   -0.0845    0.0264 H   0  0  0  0  0  0  0  0  0  0  0  0
    1.3473    0.6440   -1.8890 H   0  0  0  0  0  0  0  0  0  0  0  0
   -1.0398   -0.5745   -1.1294 H   0  0  0  0  0  0  0  0  0  0  0  0
   -1.2318    0.8663   -2.1978 H   0  0  0  0  0  0  0  0  0  0  0  0
    0.1858   -1.5416   -2.4778 H   0  0  0  0  0  0  0  0  0  0  0  0
    0.1941   -0.1159   -3.6220 H   0  0  0  0  0  0  0  0  0  0  0  0
   -4.0925   -3.4246   -4.5818 H   0  0  0  0  0  0  0  0  0  0  0  0
   -0.2207   -0.9992   -5.3578 H   0  0  0  0  0  0  0  0  0  0  0  0
   -1.5405   -2.0996   -5.6711 H   0  0  0  0  0  0  0  0  0  0  0  0
   -2.7157   -0.3681   -6.4818 H   0  0  0  0  0  0  0  0  0  0  0  0
   -2.7300    0.3160   -4.8743 H   0  0  0  0  0  0  0  0  0  0  0  0
   -0.0736    1.2108   -7.9511 H   0  0  0  0  0  0  0  0  0  0  0  0
    0.2688   -0.2062   -6.9878 H   0  0  0  0  0  0  0  0  0  0  0  0
   -1.2184   -0.1082   -7.8997 H   0  0  0  0  0  0  0  0  0  0  0  0
    1.2529    3.9073   -4.0934 H   0  0  0  0  0  0  0  0  0  0  0  0
   -0.4730    5.4952   -5.1860 H   0  0  0  0  0  0  0  0  0  0  0  0
   -1.7391    4.5784   -4.4052 H   0  0  0  0  0  0  0  0  0  0  0  0
   -1.0956    4.0897   -6.9181 H   0  0  0  0  0  0  0  0  0  0  0  0
    0.8313    4.4771   -7.7186 H   0  0  0  0  0  0  0  0  0  0  0  0
    1.2856    4.9653   -6.1036 H   0  0  0  0  0  0  0  0  0  0  0  0
    2.3262    3.9022   -7.0201 H   0  0  0  0  0  0  0  0  0  0  0  0
    2.1231    2.2911   -4.9208 H   0  0  0  0  0  0  0  0  0  0  0  0
    0.7929    3.0910   -4.1188 H   0  0  0  0  0  0  0  0  0  0  0  0
    0.7670    0.7897   -3.6993 H   0  0  0  0  0  0  0  0  0  0  0  0
   -1.2069    1.6782   -5.6311 H   0  0  0  0  0  0  0  0  0  0  0  0
    1.8168   -0.0019   -5.6625 H   0  0  0  0  0  0  0  0  0  0  0  0
   -0.8701   -0.9364   -5.2535 H   0  0  0  0  0  0  0  0  0  0  0  0
   -1.5875    1.0784   -7.9450 H   0  0  0  0  0  0  0  0  0  0  0  0
   -1.6959   -0.1849   -6.7427 H   0  0  0  0  0  0  0  0  0  0  0  0
   -1.5219    1.4812   -6.2460 H   0  0  0  0  0  0  0  0  0  0  0  0
    1.7149   -0.5333   -8.0748 H   0  0  0  0  0  0  0  0  0  0  0  0
    0.2018   -1.3666   -7.8114 H   0  0  0  0  0  0  0  0  0  0  0  0
    0.3059   -0.1039   -9.0146 H   0  0  0  0  0  0  0  0  0  0  0  0
    1.9740    1.8307   -7.4160 H   0  0  0  0  0  0  0  0  0  0  0  0
    0.6131    1.7437   -9.4470 H   0  0  0  0  0  0  0  0  0  0  0  0
   -0.6810    2.5737   -8.6167 H   0  0  0  0  0  0  0  0  0  0  0  0
   -2.5851    3.3751   -4.0060 H   0  0  0  0  0  0  0  0  0  0  0  0
   -2.8578    1.6507   -4.0790 H   0  0  0  0  0  0  0  0  0  0  0  0
   -3.7695    1.8921   -6.3750 H   0  0  0  0  0  0  0  0  0  0  0  0
   -3.4968    3.6164   -6.3020 H   0  0  0  0  0  0  0  0  0  0  0  0
   -2.8212    2.6798   -7.6132 H   0  0  0  0  0  0  0  0  0  0  0  0
    1.5975    3.9122   -1.3058 H   0  0  0  0  0  0  0  0  0  0  0  0
   -0.8550    2.1993   -0.9005 H   0  0  0  0  0  0  0  0  0  0  0  0
    0.5928    3.2250    0.9499 H   0  0  0  0  0  0  0  0  0  0  0  0
    0.4093    1.5084    1.2199 H   0  0  0  0  0  0  0  0  0  0  0  0
    1.8780    2.1283    0.5043 H   0  0  0  0  0  0  0  0  0  0  0  0
  1  2  1  0  0  0  0
  1 35  1  0  0  0  0
  1 36  1  0  0  0  0
  1 37  1  0  0  0  0
  2  3  1  0  0  0  0
  2 33  1  0  0  0  0
  2 38  1  0  0  0  0
  3  4  1  0  0  0  0
  3 39  1  0  0  0  0
  3 40  1  0  0  0  0
  4  5  1  0  0  0  0
  4 41  1  0  0  0  0
  4 42  1  0  0  0  0
  5  6  1  0  0  0  0
  5  9  1  0  0  0  0
  5 32  1  0  0  0  0
  6  7  2  0  0  0  0
  6  8  1  0  0  0  0
  8 43  1  0  0  0  0
  9 10  1  0  0  0  0
  9 44  1  0  0  0  0
  9 45  1  0  0  0  0
 10 11  1  0  0  0  0
 10 46  1  0  0  0  0
 10 47  1  0  0  0  0
 11 12  1  0  0  0  0
 11 13  1  0  0  0  0
 11 30  1  0  0  0  0
 12 48  1  0  0  0  0
 12 49  1  0  0  0  0
 12 50  1  0  0  0  0
 13 14  2  0  0  0  0
 13 32  1  0  0  0  0
 14 15  1  0  0  0  0
 14 51  1  0  0  0  0
 15 16  1  0  0  0  0
 15 52  1  0  0  0  0
 15 53  1  0  0  0  0
 16 17  1  0  0  0  0
 16 30  1  0  0  0  0
 16 54  1  0  0  0  0
 17 18  1  0  0  0  0
 17 19  1  0  0  0  0
 17 27  1  0  0  0  0
 18 55  1  0  0  0  0
 18 56  1  0  0  0  0
 18 57  1  0  0  0  0
 19 20  1  0  0  0  0
 19 58  1  0  0  0  0
 19 59  1  0  0  0  0
 20 21  1  0  0  0  0
 20 22  1  0  0  0  0
 20 60  1  0  0  0  0
 21 61  1  0  0  0  0
 22 23  1  0  0  0  0
 22 24  1  0  0  0  0
 22 62  1  0  0  0  0
 23 63  1  0  0  0  0
 24 25  1  0  0  0  0
 24 26  1  0  0  0  0
 24 27  1  0  0  0  0
 25 64  1  0  0  0  0
 25 65  1  0  0  0  0
 25 66  1  0  0  0  0
 26 67  1  0  0  0  0
 26 68  1  0  0  0  0
 26 69  1  0  0  0  0
 27 28  1  0  0  0  0
 27 70  1  0  0  0  0
 28 29  1  0  0  0  0
 28 71  1  0  0  0  0
 28 72  1  0  0  0  0
 29 30  1  0  0  0  0
 29 73  1  0  0  0  0
 29 74  1  0  0  0  0
 30 31  1  0  0  0  0
 31 75  1  0  0  0  0
 31 76  1  0  0  0  0
 31 77  1  0  0  0  0
 32 33  1  0  0  0  0
 32 78  1  0  0  0  0
 33 34  1  0  0  0  0
 33 79  1  0  0  0  0
 34 80  1  0  0  0  0
 34 81  1  0  0  0  0
 34 82  1  0  0  0  0
M  END
