
 OpenBabel03132512093D

125130  0  0  0  0  0  0  0  0999 V2000
    1.0838   -0.0142    0.0527 C   0  0  0  0  0  0  0  0  0  0  0  0
    0.5771   -0.4780    1.4086 C   0  0  0  0  0  0  0  0  0  0  0  0
   -0.2967    0.4397    2.2480 C   0  0  0  0  0  0  0  0  0  0  0  0
    0.9058   -1.7145    1.8710 C   0  0  0  0  0  0  0  0  0  0  0  0
    1.7796   -2.6322    1.0316 C   0  0  0  0  0  0  0  0  0  0  0  0
    3.0463   -2.9692    1.8013 C   0  0  0  0  0  0  0  0  0  0  0  0
    3.3355   -4.2641    2.1018 C   0  0  0  0  0  0  0  0  0  0  0  0
    4.6021   -4.6011    2.8715 C   0  0  0  0  0  0  0  0  0  0  0  0
    2.3919   -5.3740    1.6679 C   0  0  0  0  0  0  0  0  0  0  0  0
    1.2074   -4.5404    1.1733 C   0  0  0  0  0  0  0  0  0  0  0  0
    1.2714   -3.1437    1.7959 C   0  0  0  0  0  0  0  0  0  0  0  0
    1.4703   -2.1023    0.6933 C   0  0  0  0  0  0  0  0  0  0  0  0
    0.7341   -1.2334   -0.3134 C   0  0  0  0  0  0  0  0  0  0  0  0
    2.8345   -6.3362    0.5643 C   0  0  0  0  0  0  0  0  0  0  0  0
    4.3056   -6.7055    0.7688 C   0  0  0  0  0  0  0  0  0  0  0  0
    4.9525   -5.6795    1.5073 O   0  0  0  0  0  0  0  0  0  0  0  0
    4.9871   -6.8608   -0.5918 C   0  0  0  0  0  0  0  0  0  0  0  0
    6.3865   -6.2456   -0.5348 C   0  0  0  0  0  0  0  0  0  0  0  0
    6.5689   -5.2811   -1.7087 C   0  0  0  0  0  0  0  0  0  0  0  0
    6.4753   -6.3589   -2.7764 C   0  0  0  0  0  0  0  0  0  0  0  0
    7.3952   -4.0764   -1.2540 C   0  0  0  0  0  0  0  0  0  0  0  0
    6.9712   -2.8549   -2.0294 C   0  0  0  0  0  0  0  0  0  0  0  0
    8.0509   -1.9533   -1.8348 O   0  0  0  0  0  0  0  0  0  0  0  0
    5.9020   -2.1466   -1.6331 C   0  0  0  0  0  0  0  0  0  0  0  0
    4.7992   -3.0279   -1.7861 O   0  0  0  0  0  0  0  0  0  0  0  0
    4.6641   -3.3841   -3.1541 C   0  0  0  0  0  0  0  0  0  0  0  0
    4.4346   -2.1263   -3.9953 O   0  0  0  0  0  0  0  0  0  0  0  0
    5.5718   -1.2674   -3.8870 C   0  0  0  0  0  0  0  0  0  0  0  0
    5.7680   -0.9841   -2.4066 C   0  0  0  0  0  0  0  0  0  0  0  0
    6.8726   -0.1085   -2.2345 O   0  0  0  0  0  0  0  0  0  0  0  0
    6.7883   -1.8483   -4.3603 C   0  0  0  0  0  0  0  0  0  0  0  0
    7.8438   -0.9071   -4.2324 O   0  0  0  0  0  0  0  0  0  0  0  0
    7.1130   -3.0949   -3.5338 C   0  0  0  0  0  0  0  0  0  0  0  0
    7.3191   -2.7285   -2.1775 O   0  0  0  0  0  0  0  0  0  0  0  0
    5.9437   -4.0799   -3.6297 C   0  0  0  0  0  0  0  0  0  0  0  0
    6.2039   -5.2136   -2.8152 O   0  0  0  0  0  0  0  0  0  0  0  0
    6.3643   -4.8004   -1.4661 C   0  0  0  0  0  0  0  0  0  0  0  0
    7.5313   -3.8144   -1.3753 O   0  0  0  0  0  0  0  0  0  0  0  0
    7.2342   -2.6526   -2.1528 C   0  0  0  0  0  0  0  0  0  0  0  0
    6.9490   -3.1322   -3.5667 C   0  0  0  0  0  0  0  0  0  0  0  0
    6.6725   -2.0151   -4.3986 O   0  0  0  0  0  0  0  0  0  0  0  0
    6.0746   -1.9405   -1.7173 C   0  0  0  0  0  0  0  0  0  0  0  0
    5.8862   -0.7960   -2.5364 O   0  0  0  0  0  0  0  0  0  0  0  0
    4.8486   -2.8507   -1.8219 C   0  0  0  0  0  0  0  0  0  0  0  0
    4.6373   -3.2135   -3.1784 O   0  0  0  0  0  0  0  0  0  0  0  0
    5.0847   -4.1101   -0.9823 C   0  0  0  0  0  0  0  0  0  0  0  0
    3.9815   -4.9931   -1.1221 O   0  0  0  0  0  0  0  0  0  0  0  0
    5.5589   -0.9749   -2.4179 C   0  0  0  0  0  0  0  0  0  0  0  0
    6.8307   -0.2944   -2.8973 C   0  0  0  0  0  0  0  0  0  0  0  0
    4.7270   -1.3945   -3.6189 C   0  0  0  0  0  0  0  0  0  0  0  0
    4.7533   -0.0026   -1.5532 C   0  0  0  0  0  0  0  0  0  0  0  0
    4.1824   -0.7195   -0.4270 C   0  0  0  0  0  0  0  0  0  0  0  0
    3.0117   -0.2697    0.0526 C   0  0  0  0  0  0  0  0  0  0  0  0
    2.3555   -0.9695    1.2149 C   0  0  0  0  0  0  0  0  0  0  0  0
    1.9761   -0.0758    2.3844 C   0  0  0  0  0  0  0  0  0  0  0  0
    0.7271    0.9757   -0.1418 H   0  0  0  0  0  0  0  0  0  0  0  0
    0.7271   -0.6776   -0.7073 H   0  0  0  0  0  0  0  0  0  0  0  0
    2.1538   -0.0142    0.0527 H   0  0  0  0  0  0  0  0  0  0  0  0
   -1.2418   -0.0302    2.4237 H   0  0  0  0  0  0  0  0  0  0  0  0
    0.1848    0.6332    3.1837 H   0  0  0  0  0  0  0  0  0  0  0  0
   -0.4484    1.3622    1.7274 H   0  0  0  0  0  0  0  0  0  0  0  0
    0.5491   -2.0410    2.8255 H   0  0  0  0  0  0  0  0  0  0  0  0
    1.2447   -3.5328    0.8134 H   0  0  0  0  0  0  0  0  0  0  0  0
    2.0381   -2.1405    0.1172 H   0  0  0  0  0  0  0  0  0  0  0  0
    3.7106   -2.1880    2.1067 H   0  0  0  0  0  0  0  0  0  0  0  0
    4.3436   -5.0929    3.7859 H   0  0  0  0  0  0  0  0  0  0  0  0
    5.2173   -5.2472    2.2806 H   0  0  0  0  0  0  0  0  0  0  0  0
    5.1371   -3.7005    3.0897 H   0  0  0  0  0  0  0  0  0  0  0  0
    2.2469   -6.0608    2.4754 H   0  0  0  0  0  0  0  0  0  0  0  0
    1.2494   -4.4581    0.1073 H   0  0  0  0  0  0  0  0  0  0  0  0
    0.2924   -5.0164    1.4584 H   0  0  0  0  0  0  0  0  0  0  0  0
    2.0905   -3.0967    2.4827 H   0  0  0  0  0  0  0  0  0  0  0  0
    0.3579   -2.9428    2.3156 H   0  0  0  0  0  0  0  0  0  0  0  0
    0.1783   -1.8560   -0.9829 H   0  0  0  0  0  0  0  0  0  0  0  0
    0.0642   -0.5783    0.2034 H   0  0  0  0  0  0  0  0  0  0  0  0
    1.4414   -0.6541   -0.8692 H   0  0  0  0  0  0  0  0  0  0  0  0
    2.5970   -7.2069   -0.0105 H   0  0  0  0  0  0  0  0  0  0  0  0
    4.3701   -7.6279    1.3072 H   0  0  0  0  0  0  0  0  0  0  0  0
    4.8920   -4.8176    1.0038 H   0  0  0  0  0  0  0  0  0  0  0  0
    5.0640   -7.8998   -0.8354 H   0  0  0  0  0  0  0  0  0  0  0  0
    4.4079   -6.3608   -1.3398 H   0  0  0  0  0  0  0  0  0  0  0  0
    7.2126   -6.8411   -0.2064 H   0  0  0  0  0  0  0  0  0  0  0  0
    5.4465   -6.5630   -2.9880 H   0  0  0  0  0  0  0  0  0  0  0  0
    6.9625   -6.0215   -3.6673 H   0  0  0  0  0  0  0  0  0  0  0  0
    6.9511   -7.2508   -2.4256 H   0  0  0  0  0  0  0  0  0  0  0  0
    7.2363   -3.9086   -0.2092 H   0  0  0  0  0  0  0  0  0  0  0  0
    8.4329   -4.2685   -1.4305 H   0  0  0  0  0  0  0  0  0  0  0  0
    6.7745   -3.1774   -3.0305 H   0  0  0  0  0  0  0  0  0  0  0  0
    8.1287   -1.7314   -0.8628 H   0  0  0  0  0  0  0  0  0  0  0  0
    6.0843   -1.8211   -0.6303 H   0  0  0  0  0  0  0  0  0  0  0  0
    3.8300   -4.0452   -3.2645 H   0  0  0  0  0  0  0  0  0  0  0  0
    5.3791   -0.3814   -4.4551 H   0  0  0  0  0  0  0  0  0  0  0  0
    4.8853   -0.5267   -2.0109 H   0  0  0  0  0  0  0  0  0  0  0  0
    5.9565   -1.9018   -1.8897 H   0  0  0  0  0  0  0  0  0  0  0  0
    7.6975   -0.5360   -2.6043 H   0  0  0  0  0  0  0  0  0  0  0  0
    6.6768   -2.1212   -5.3889 H   0  0  0  0  0  0  0  0  0  0  0  0
    7.9482   -0.6518   -3.2712 H   0  0  0  0  0  0  0  0  0  0  0  0
    8.0010   -3.5552   -3.9139 H   0  0  0  0  0  0  0  0  0  0  0  0
    6.4909   -2.2979   -1.8189 H   0  0  0  0  0  0  0  0  0  0  0  0
    5.8237   -4.3964   -4.6447 H   0  0  0  0  0  0  0  0  0  0  0  0
    6.5616   -5.6557   -0.8542 H   0  0  0  0  0  0  0  0  0  0  0  0
    8.0736   -1.9909   -2.1024 H   0  0  0  0  0  0  0  0  0  0  0  0
    7.8022   -3.6558   -3.9445 H   0  0  0  0  0  0  0  0  0  0  0  0
    6.1035   -3.7878   -3.5571 H   0  0  0  0  0  0  0  0  0  0  0  0
    5.8752   -1.5257   -4.0455 H   0  0  0  0  0  0  0  0  0  0  0  0
    6.2054   -1.6335   -0.7006 H   0  0  0  0  0  0  0  0  0  0  0  0
    5.7640   -1.0827   -3.4866 H   0  0  0  0  0  0  0  0  0  0  0  0
    3.9863   -2.3332   -1.4565 H   0  0  0  0  0  0  0  0  0  0  0  0
    5.4416   -3.6974   -3.5232 H   0  0  0  0  0  0  0  0  0  0  0  0
    5.1905   -3.8399    0.0476 H   0  0  0  0  0  0  0  0  0  0  0  0
    3.8787   -5.2485   -2.0834 H   0  0  0  0  0  0  0  0  0  0  0  0
    7.3935   -0.9750   -3.5015 H   0  0  0  0  0  0  0  0  0  0  0  0
    6.5768    0.5695   -3.4754 H   0  0  0  0  0  0  0  0  0  0  0  0
    7.4171    0.0015   -2.0527 H   0  0  0  0  0  0  0  0  0  0  0  0
    3.8318   -1.8744   -3.2825 H   0  0  0  0  0  0  0  0  0  0  0  0
    4.4731   -0.5303   -4.1963 H   0  0  0  0  0  0  0  0  0  0  0  0
    5.2907   -2.0743   -4.2232 H   0  0  0  0  0  0  0  0  0  0  0  0
    4.5233    1.0383   -1.6449 H   0  0  0  0  0  0  0  0  0  0  0  0
    3.9712   -1.6998   -0.8003 H   0  0  0  0  0  0  0  0  0  0  0  0
    4.8933   -0.6840    0.3719 H   0  0  0  0  0  0  0  0  0  0  0  0
    3.2620    0.6905    0.4527 H   0  0  0  0  0  0  0  0  0  0  0  0
    2.3143   -0.2976   -0.7585 H   0  0  0  0  0  0  0  0  0  0  0  0
    1.0654    0.4389    2.1592 H   0  0  0  0  0  0  0  0  0  0  0  0
    1.8403   -0.6740    3.2611 H   0  0  0  0  0  0  0  0  0  0  0  0
    2.7555    0.6369    2.5562 H   0  0  0  0  0  0  0  0  0  0  0  0
  1  2  1  0  0  0  0
  1 56  1  0  0  0  0
  1 57  1  0  0  0  0
  1 58  1  0  0  0  0
  2  3  1  0  0  0  0
  2  4  2  0  0  0  0
  3 59  1  0  0  0  0
  3 60  1  0  0  0  0
  3 61  1  0  0  0  0
  4  5  1  0  0  0  0
  4 62  1  0  0  0  0
  5  6  1  0  0  0  0
  5 63  1  0  0  0  0
  5 64  1  0  0  0  0
  6  7  2  0  0  0  0
  6 65  1  0  0  0  0
  7  8  1  0  0  0  0
  7  9  1  0  0  0  0
  8 66  1  0  0  0  0
  8 67  1  0  0  0  0
  8 68  1  0  0  0  0
  9 10  1  0  0  0  0
  9 14  1  0  0  0  0
  9 69  1  0  0  0  0
 10 11  1  0  0  0  0
 10 70  1  0  0  0  0
 10 71  1  0  0  0  0
 11 12  1  0  0  0  0
 11 72  1  0  0  0  0
 11 73  1  0  0  0  0
 12 13  1  0  0  0  0
 12 14  1  0  0  0  0
 12 54  1  0  0  0  0
 13 74  1  0  0  0  0
 13 75  1  0  0  0  0
 13 76  1  0  0  0  0
 14 15  1  0  0  0  0
 14 77  1  0  0  0  0
 15 16  1  0  0  0  0
 15 17  1  0  0  0  0
 15 78  1  0  0  0  0
 16 79  1  0  0  0  0
 17 18  1  0  0  0  0
 17 80  1  0  0  0  0
 17 81  1  0  0  0  0
 18 19  1  0  0  0  0
 18 54  1  0  0  0  0
 18 82  1  0  0  0  0
 19 20  1  0  0  0  0
 19 21  1  0  0  0  0
 19 51  1  0  0  0  0
 20 83  1  0  0  0  0
 20 84  1  0  0  0  0
 20 85  1  0  0  0  0
 21 22  1  0  0  0  0
 21 86  1  0  0  0  0
 21 87  1  0  0  0  0
 22 23  1  0  0  0  0
 22 24  1  0  0  0  0
 22 88  1  0  0  0  0
 23 89  1  0  0  0  0
 24 25  1  0  0  0  0
 24 48  1  0  0  0  0
 24 90  1  0  0  0  0
 25 26  1  0  0  0  0
 26 27  1  0  0  0  0
 26 35  1  0  0  0  0
 26 91  1  0  0  0  0
 27 28  1  0  0  0  0
 28 29  1  0  0  0  0
 28 31  1  0  0  0  0
 28 92  1  0  0  0  0
 29 30  1  0  0  0  0
 29 93  1  0  0  0  0
 29 94  1  0  0  0  0
 30 95  1  0  0  0  0
 31 32  1  0  0  0  0
 31 33  1  0  0  0  0
 31 96  1  0  0  0  0
 32 97  1  0  0  0  0
 33 34  1  0  0  0  0
 33 35  1  0  0  0  0
 33 98  1  0  0  0  0
 34 99  1  0  0  0  0
 35 36  1  0  0  0  0
 35100  1  0  0  0  0
 36 37  1  0  0  0  0
 37 38  1  0  0  0  0
 37 46  1  0  0  0  0
 37101  1  0  0  0  0
 38 39  1  0  0  0  0
 39 40  1  0  0  0  0
 39 42  1  0  0  0  0
 39102  1  0  0  0  0
 40 41  1  0  0  0  0
 40103  1  0  0  0  0
 40104  1  0  0  0  0
 41105  1  0  0  0  0
 42 43  1  0  0  0  0
 42 44  1  0  0  0  0
 42106  1  0  0  0  0
 43107  1  0  0  0  0
 44 45  1  0  0  0  0
 44 46  1  0  0  0  0
 44108  1  0  0  0  0
 45109  1  0  0  0  0
 46 47  1  0  0  0  0
 46110  1  0  0  0  0
 47111  1  0  0  0  0
 48 49  1  0  0  0  0
 48 50  1  0  0  0  0
 48 51  1  0  0  0  0
 49112  1  0  0  0  0
 49113  1  0  0  0  0
 49114  1  0  0  0  0
 50115  1  0  0  0  0
 50116  1  0  0  0  0
 50117  1  0  0  0  0
 51 52  1  0  0  0  0
 51118  1  0  0  0  0
 52 53  1  0  0  0  0
 52119  1  0  0  0  0
 52120  1  0  0  0  0
 53 54  1  0  0  0  0
 53121  1  0  0  0  0
 53122  1  0  0  0  0
 54 55  1  0  0  0  0
 55123  1  0  0  0  0
 55124  1  0  0  0  0
 55125  1  0  0  0  0
M  END
