
 OpenBabel03132514253D

125130  0  0  0  0  0  0  0  0999 V2000
    1.0956    0.0032   -0.0290 C   0  0  0  0  0  0  0  0  0  0  0  0
    0.5890    0.5050   -1.3714 C   0  0  0  0  0  0  0  0  0  0  0  0
   -0.2849   -0.3888   -2.2362 C   0  0  0  0  0  0  0  0  0  0  0  0
    0.9176    1.7540   -1.7988 C   0  0  0  0  0  0  0  0  0  0  0  0
    1.7915    2.6478   -0.9339 C   0  0  0  0  0  0  0  0  0  0  0  0
    3.0582    3.0063   -1.6938 C   0  0  0  0  0  0  0  0  0  0  0  0
    3.3473    4.3091   -1.9578 C   0  0  0  0  0  0  0  0  0  0  0  0
    4.6140    4.6676   -2.7177 C   0  0  0  0  0  0  0  0  0  0  0  0
    2.4037    5.4063   -1.4929 C   0  0  0  0  0  0  0  0  0  0  0  0
    1.6635    5.8650   -2.7515 C   0  0  0  0  0  0  0  0  0  0  0  0
    2.6210    5.8366   -3.9451 C   0  0  0  0  0  0  0  0  0  0  0  0
    2.1317    4.8094   -4.9674 C   0  0  0  0  0  0  0  0  0  0  0  0
    1.2062    4.6158   -6.1575 C   0  0  0  0  0  0  0  0  0  0  0  0
    1.4345    4.6596   -0.5748 C   0  0  0  0  0  0  0  0  0  0  0  0
    2.2189    3.7007    0.3238 C   0  0  0  0  0  0  0  0  0  0  0  0
    3.4485    3.3651   -0.3022 O   0  0  0  0  0  0  0  0  0  0  0  0
    1.3997    2.4292    0.5517 C   0  0  0  0  0  0  0  0  0  0  0  0
    2.3229    1.2106    0.4967 C   0  0  0  0  0  0  0  0  0  0  0  0
    1.7442    0.1743   -0.4689 C   0  0  0  0  0  0  0  0  0  0  0  0
    0.5043   -0.1013    0.3660 C   0  0  0  0  0  0  0  0  0  0  0  0
    2.8846   -0.5059   -1.2291 C   0  0  0  0  0  0  0  0  0  0  0  0
    2.4078   -0.8986   -2.6044 C   0  0  0  0  0  0  0  0  0  0  0  0
    3.3707   -1.8543   -3.0235 O   0  0  0  0  0  0  0  0  0  0  0  0
    2.4139    0.0028   -3.5991 C   0  0  0  0  0  0  0  0  0  0  0  0
    1.4795    0.9957   -3.2021 O   0  0  0  0  0  0  0  0  0  0  0  0
    0.1901    0.4124   -3.0851 C   0  0  0  0  0  0  0  0  0  0  0  0
    0.2170   -0.2376   -4.4704 O   0  0  0  0  0  0  0  0  0  0  0  0
    1.4459   -0.9474   -4.6393 C   0  0  0  0  0  0  0  0  0  0  0  0
    2.5659    0.0552   -4.4138 C   0  0  0  0  0  0  0  0  0  0  0  0
    3.8194   -0.5865   -4.5959 O   0  0  0  0  0  0  0  0  0  0  0  0
    1.6429   -2.0041   -3.6980 C   0  0  0  0  0  0  0  0  0  0  0  0
    2.8742   -2.6571   -3.9699 O   0  0  0  0  0  0  0  0  0  0  0  0
    1.6738   -1.4255   -2.2815 C   0  0  0  0  0  0  0  0  0  0  0  0
    2.7721   -0.5347   -2.1530 O   0  0  0  0  0  0  0  0  0  0  0  0
    0.3660   -0.6726   -2.0177 C   0  0  0  0  0  0  0  0  0  0  0  0
    0.4079   -0.0757   -0.7299 O   0  0  0  0  0  0  0  0  0  0  0  0
    1.4974    0.8326   -0.6644 C   0  0  0  0  0  0  0  0  0  0  0  0
    2.0665   -0.4197   -1.3354 O   0  0  0  0  0  0  0  0  0  0  0  0
    1.2204   -0.8040   -2.4212 C   0  0  0  0  0  0  0  0  0  0  0  0
   -0.1719   -1.0002   -1.8439 C   0  0  0  0  0  0  0  0  0  0  0  0
   -1.0579   -1.4121   -2.8744 O   0  0  0  0  0  0  0  0  0  0  0  0
    1.1055    0.1826   -3.4482 C   0  0  0  0  0  0  0  0  0  0  0  0
    0.2686   -0.3082   -4.4851 O   0  0  0  0  0  0  0  0  0  0  0  0
    0.4975    1.4593   -2.8626 C   0  0  0  0  0  0  0  0  0  0  0  0
   -0.8130    1.1897   -2.3869 O   0  0  0  0  0  0  0  0  0  0  0  0
    1.3750    1.9492   -1.7064 C   0  0  0  0  0  0  0  0  0  0  0  0
    0.7876    3.0972   -1.1120 O   0  0  0  0  0  0  0  0  0  0  0  0
    1.9545   -0.4473   -4.9002 C   0  0  0  0  0  0  0  0  0  0  0  0
    2.3965   -1.8840   -5.1259 C   0  0  0  0  0  0  0  0  0  0  0  0
    0.4375   -0.3706   -4.9570 C   0  0  0  0  0  0  0  0  0  0  0  0
    2.5522    0.4486   -5.9876 C   0  0  0  0  0  0  0  0  0  0  0  0
    2.9738    1.7063   -5.3972 C   0  0  0  0  0  0  0  0  0  0  0  0
    2.9203    2.7961   -6.1797 C   0  0  0  0  0  0  0  0  0  0  0  0
    3.3344    4.1375   -5.6317 C   0  0  0  0  0  0  0  0  0  0  0  0
    4.3681    4.8878   -6.4557 C   0  0  0  0  0  0  0  0  0  0  0  0
    0.7390   -0.9917    0.1375 H   0  0  0  0  0  0  0  0  0  0  0  0
    0.7390    0.6450    0.7493 H   0  0  0  0  0  0  0  0  0  0  0  0
    2.1656    0.0032   -0.0290 H   0  0  0  0  0  0  0  0  0  0  0  0
   -1.2300    0.0859   -2.3986 H   0  0  0  0  0  0  0  0  0  0  0  0
    0.1967   -0.5559   -3.1770 H   0  0  0  0  0  0  0  0  0  0  0  0
   -0.4365   -1.3255   -1.7418 H   0  0  0  0  0  0  0  0  0  0  0  0
    0.5609    2.1072   -2.7437 H   0  0  0  0  0  0  0  0  0  0  0  0
    1.2565    3.5419   -0.6905 H   0  0  0  0  0  0  0  0  0  0  0  0
    2.0500    2.1305   -0.0337 H   0  0  0  0  0  0  0  0  0  0  0  0
    3.7224    2.2339   -2.0211 H   0  0  0  0  0  0  0  0  0  0  0  0
    4.3555    5.1849   -3.6180 H   0  0  0  0  0  0  0  0  0  0  0  0
    5.2291    5.2968   -2.1089 H   0  0  0  0  0  0  0  0  0  0  0  0
    5.1490    3.7735   -2.9612 H   0  0  0  0  0  0  0  0  0  0  0  0
    2.8602    6.2434   -1.0073 H   0  0  0  0  0  0  0  0  0  0  0  0
    0.8393    5.2090   -2.9397 H   0  0  0  0  0  0  0  0  0  0  0  0
    1.3008    6.8614   -2.6088 H   0  0  0  0  0  0  0  0  0  0  0  0
    3.6007    5.5671   -3.6099 H   0  0  0  0  0  0  0  0  0  0  0  0
    2.6531    6.8047   -4.3997 H   0  0  0  0  0  0  0  0  0  0  0  0
    0.1985    4.8231   -5.8632 H   0  0  0  0  0  0  0  0  0  0  0  0
    1.4923    5.2825   -6.9440 H   0  0  0  0  0  0  0  0  0  0  0  0
    1.2761    3.6056   -6.5032 H   0  0  0  0  0  0  0  0  0  0  0  0
    0.5875    4.7277    0.0754 H   0  0  0  0  0  0  0  0  0  0  0  0
    2.4140    4.1724    1.2641 H   0  0  0  0  0  0  0  0  0  0  0  0
    3.2658    2.9242   -1.1810 H   0  0  0  0  0  0  0  0  0  0  0  0
    0.9281    2.4761    1.5111 H   0  0  0  0  0  0  0  0  0  0  0  0
    0.6525    2.3451   -0.2095 H   0  0  0  0  0  0  0  0  0  0  0  0
    2.8215    0.8847    1.3856 H   0  0  0  0  0  0  0  0  0  0  0  0
   -0.2385    0.6398    0.1568 H   0  0  0  0  0  0  0  0  0  0  0  0
    0.1196   -1.0701    0.1242 H   0  0  0  0  0  0  0  0  0  0  0  0
    0.7590   -0.0678    1.4047 H   0  0  0  0  0  0  0  0  0  0  0  0
    3.7085    0.1712   -1.3170 H   0  0  0  0  0  0  0  0  0  0  0  0
    3.1967   -1.3800   -0.6967 H   0  0  0  0  0  0  0  0  0  0  0  0
    1.3972   -1.2335   -2.4970 H   0  0  0  0  0  0  0  0  0  0  0  0
    4.2686   -1.4182   -3.0844 H   0  0  0  0  0  0  0  0  0  0  0  0
    3.4196    0.3494   -3.7143 H   0  0  0  0  0  0  0  0  0  0  0  0
   -0.6666    1.0071   -2.8457 H   0  0  0  0  0  0  0  0  0  0  0  0
    1.4592   -1.3671   -5.6234 H   0  0  0  0  0  0  0  0  0  0  0  0
    2.4715    0.8588   -5.1140 H   0  0  0  0  0  0  0  0  0  0  0  0
    2.5041    0.4410   -3.4177 H   0  0  0  0  0  0  0  0  0  0  0  0
    3.9076   -1.3375   -3.9416 H   0  0  0  0  0  0  0  0  0  0  0  0
    0.8410   -2.7078   -3.7786 H   0  0  0  0  0  0  0  0  0  0  0  0
    3.6240   -1.9996   -3.8946 H   0  0  0  0  0  0  0  0  0  0  0  0
    1.7789   -2.2199   -1.5724 H   0  0  0  0  0  0  0  0  0  0  0  0
    2.6771    0.2093   -2.8145 H   0  0  0  0  0  0  0  0  0  0  0  0
   -0.4563   -1.3558   -2.0619 H   0  0  0  0  0  0  0  0  0  0  0  0
    1.8473    1.3691    0.1927 H   0  0  0  0  0  0  0  0  0  0  0  0
    1.6169   -1.6975   -2.8563 H   0  0  0  0  0  0  0  0  0  0  0  0
   -0.1393   -1.7496   -1.0809 H   0  0  0  0  0  0  0  0  0  0  0  0
   -0.5171   -0.0786   -1.4241 H   0  0  0  0  0  0  0  0  0  0  0  0
   -1.0883   -0.7118   -3.5875 H   0  0  0  0  0  0  0  0  0  0  0  0
    2.0753    0.3989   -3.8453 H   0  0  0  0  0  0  0  0  0  0  0  0
   -0.6378   -0.5104   -4.1142 H   0  0  0  0  0  0  0  0  0  0  0  0
    0.4498    2.2133   -3.6203 H   0  0  0  0  0  0  0  0  0  0  0  0
   -0.7720    0.4852   -1.6784 H   0  0  0  0  0  0  0  0  0  0  0  0
    2.3465    2.2029   -2.0761 H   0  0  0  0  0  0  0  0  0  0  0  0
   -0.1210    2.8649   -0.7649 H   0  0  0  0  0  0  0  0  0  0  0  0
    1.9785   -2.5094   -4.3651 H   0  0  0  0  0  0  0  0  0  0  0  0
    2.0578   -2.2147   -6.0855 H   0  0  0  0  0  0  0  0  0  0  0  0
    3.4643   -1.9391   -5.0862 H   0  0  0  0  0  0  0  0  0  0  0  0
    0.1253    0.6403   -4.7975 H   0  0  0  0  0  0  0  0  0  0  0  0
    0.0994   -0.7011   -5.9169 H   0  0  0  0  0  0  0  0  0  0  0  0
    0.0200   -0.9971   -4.1966 H   0  0  0  0  0  0  0  0  0  0  0  0
    2.6751    0.3324   -7.0441 H   0  0  0  0  0  0  0  0  0  0  0  0
    2.2714    1.8936   -4.6120 H   0  0  0  0  0  0  0  0  0  0  0  0
    3.9880    1.5885   -5.0771 H   0  0  0  0  0  0  0  0  0  0  0  0
    3.6580    2.5978   -6.9290 H   0  0  0  0  0  0  0  0  0  0  0  0
    1.9051    2.8945   -6.5034 H   0  0  0  0  0  0  0  0  0  0  0  0
    3.8877    5.3580   -7.2881 H   0  0  0  0  0  0  0  0  0  0  0  0
    4.8370    5.6326   -5.8471 H   0  0  0  0  0  0  0  0  0  0  0  0
    5.1072    4.2009   -6.8117 H   0  0  0  0  0  0  0  0  0  0  0  0
  1  2  1  0  0  0  0
  1 56  1  0  0  0  0
  1 57  1  0  0  0  0
  1 58  1  0  0  0  0
  2  3  1  0  0  0  0
  2  4  2  0  0  0  0
  3 59  1  0  0  0  0
  3 60  1  0  0  0  0
  3 61  1  0  0  0  0
  4  5  1  0  0  0  0
  4 62  1  0  0  0  0
  5  6  1  0  0  0  0
  5 63  1  0  0  0  0
  5 64  1  0  0  0  0
  6  7  2  0  0  0  0
  6 65  1  0  0  0  0
  7  8  1  0  0  0  0
  7  9  1  0  0  0  0
  8 66  1  0  0  0  0
  8 67  1  0  0  0  0
  8 68  1  0  0  0  0
  9 10  1  0  0  0  0
  9 14  1  0  0  0  0
  9 69  1  0  0  0  0
 10 11  1  0  0  0  0
 10 70  1  0  0  0  0
 10 71  1  0  0  0  0
 11 12  1  0  0  0  0
 11 72  1  0  0  0  0
 11 73  1  0  0  0  0
 12 13  1  0  0  0  0
 12 14  1  0  0  0  0
 12 54  1  0  0  0  0
 13 74  1  0  0  0  0
 13 75  1  0  0  0  0
 13 76  1  0  0  0  0
 14 15  1  0  0  0  0
 14 77  1  0  0  0  0
 15 16  1  0  0  0  0
 15 17  1  0  0  0  0
 15 78  1  0  0  0  0
 16 79  1  0  0  0  0
 17 18  1  0  0  0  0
 17 80  1  0  0  0  0
 17 81  1  0  0  0  0
 18 19  1  0  0  0  0
 18 54  1  0  0  0  0
 18 82  1  0  0  0  0
 19 20  1  0  0  0  0
 19 21  1  0  0  0  0
 19 51  1  0  0  0  0
 20 83  1  0  0  0  0
 20 84  1  0  0  0  0
 20 85  1  0  0  0  0
 21 22  1  0  0  0  0
 21 86  1  0  0  0  0
 21 87  1  0  0  0  0
 22 23  1  0  0  0  0
 22 24  1  0  0  0  0
 22 88  1  0  0  0  0
 23 89  1  0  0  0  0
 24 25  1  0  0  0  0
 24 48  1  0  0  0  0
 24 90  1  0  0  0  0
 25 26  1  0  0  0  0
 26 27  1  0  0  0  0
 26 35  1  0  0  0  0
 26 91  1  0  0  0  0
 27 28  1  0  0  0  0
 28 29  1  0  0  0  0
 28 31  1  0  0  0  0
 28 92  1  0  0  0  0
 29 30  1  0  0  0  0
 29 93  1  0  0  0  0
 29 94  1  0  0  0  0
 30 95  1  0  0  0  0
 31 32  1  0  0  0  0
 31 33  1  0  0  0  0
 31 96  1  0  0  0  0
 32 97  1  0  0  0  0
 33 34  1  0  0  0  0
 33 35  1  0  0  0  0
 33 98  1  0  0  0  0
 34 99  1  0  0  0  0
 35 36  1  0  0  0  0
 35100  1  0  0  0  0
 36 37  1  0  0  0  0
 37 38  1  0  0  0  0
 37 46  1  0  0  0  0
 37101  1  0  0  0  0
 38 39  1  0  0  0  0
 39 40  1  0  0  0  0
 39 42  1  0  0  0  0
 39102  1  0  0  0  0
 40 41  1  0  0  0  0
 40103  1  0  0  0  0
 40104  1  0  0  0  0
 41105  1  0  0  0  0
 42 43  1  0  0  0  0
 42 44  1  0  0  0  0
 42106  1  0  0  0  0
 43107  1  0  0  0  0
 44 45  1  0  0  0  0
 44 46  1  0  0  0  0
 44108  1  0  0  0  0
 45109  1  0  0  0  0
 46 47  1  0  0  0  0
 46110  1  0  0  0  0
 47111  1  0  0  0  0
 48 49  1  0  0  0  0
 48 50  1  0  0  0  0
 48 51  1  0  0  0  0
 49112  1  0  0  0  0
 49113  1  0  0  0  0
 49114  1  0  0  0  0
 50115  1  0  0  0  0
 50116  1  0  0  0  0
 50117  1  0  0  0  0
 51 52  1  0  0  0  0
 51118  1  0  0  0  0
 52 53  1  0  0  0  0
 52119  1  0  0  0  0
 52120  1  0  0  0  0
 53 54  1  0  0  0  0
 53121  1  0  0  0  0
 53122  1  0  0  0  0
 54 55  1  0  0  0  0
 55123  1  0  0  0  0
 55124  1  0  0  0  0
 55125  1  0  0  0  0
M  END
