
 OpenBabel03132512093D

 51 55  0  0  0  0  0  0  0  0999 V2000
    1.0934    0.0358    0.0004 C   0  0  0  0  0  0  0  0  0  0  0  0
    0.6200    0.3041    1.3120 O   0  0  0  0  0  0  0  0  0  0  0  0
    0.9631   -0.5641    2.3821 C   0  0  0  0  0  0  0  0  0  0  0  0
    2.2752   -1.0677    2.6034 C   0  0  0  0  0  0  0  0  0  0  0  0
    2.4848   -2.0261    3.6085 C   0  0  0  0  0  0  0  0  0  0  0  0
    1.5634   -2.2470    4.4994 C   0  0  0  0  0  0  0  0  0  0  0  0
    0.3646   -1.5222    4.4647 C   0  0  0  0  0  0  0  0  0  0  0  0
    0.0235   -0.7894    3.3019 C   0  0  0  0  0  0  0  0  0  0  0  0
   -1.2976   -0.3021    3.1181 O   0  0  0  0  0  0  0  0  0  0  0  0
   -1.6273    0.4316    1.9479 C   0  0  0  0  0  0  0  0  0  0  0  0
    1.7871   -3.2927    5.5796 C   0  0  0  0  0  0  0  0  0  0  0  0
    1.7917   -2.5211    6.8608 C   0  0  0  0  0  0  0  0  0  0  0  0
    2.0163   -1.2712    6.9111 O   0  0  0  0  0  0  0  0  0  0  0  0
    1.5105   -3.3413    8.0748 C   0  0  0  0  0  0  0  0  0  0  0  0
    1.7856   -2.8397    9.3434 C   0  0  0  0  0  0  0  0  0  0  0  0
    1.5200   -3.6036   10.4636 C   0  0  0  0  0  0  0  0  0  0  0  0
    0.9767   -4.8679   10.3153 C   0  0  0  0  0  0  0  0  0  0  0  0
    0.7003   -5.3782    9.0375 C   0  0  0  0  0  0  0  0  0  0  0  0
    0.9674   -4.6128    7.9031 C   0  0  0  0  0  0  0  0  0  0  0  0
    0.6685   -5.1771    6.5459 O   0  0  0  0  0  0  0  0  0  0  0  0
    0.8198   -4.2514    5.4843 C   0  0  0  0  0  0  0  0  0  0  0  0
   -0.4801   -3.4637    5.4962 C   0  0  0  0  0  0  0  0  0  0  0  0
    3.7033   -2.7541    3.6520 O   0  0  0  0  0  0  0  0  0  0  0  0
    0.1283   -6.7349    8.9224 C   0  0  0  0  0  0  0  0  0  0  0  0
   -0.3965   -7.3190    9.9920 C   0  0  0  0  0  0  0  0  0  0  0  0
   -0.4332   -6.6145   11.3227 C   0  0  0  0  0  0  0  0  0  0  0  0
   -0.3187   -7.6434   12.4356 C   0  0  0  0  0  0  0  0  0  0  0  0
   -1.7438   -5.8562   11.4549 C   0  0  0  0  0  0  0  0  0  0  0  0
    0.6868   -5.6707   11.4215 O   0  0  0  0  0  0  0  0  0  0  0  0
    0.7367    0.7906   -0.6689 H   0  0  0  0  0  0  0  0  0  0  0  0
    0.7367   -0.9212   -0.3187 H   0  0  0  0  0  0  0  0  0  0  0  0
    2.1634    0.0358    0.0004 H   0  0  0  0  0  0  0  0  0  0  0  0
    3.0945   -0.7197    2.0098 H   0  0  0  0  0  0  0  0  0  0  0  0
   -0.2891   -1.5225    5.3117 H   0  0  0  0  0  0  0  0  0  0  0  0
   -1.0181    1.3095    1.8938 H   0  0  0  0  0  0  0  0  0  0  0  0
   -1.4537   -0.1767    1.0849 H   0  0  0  0  0  0  0  0  0  0  0  0
   -2.6586    0.7147    1.9831 H   0  0  0  0  0  0  0  0  0  0  0  0
    2.7067   -3.8336    5.4975 H   0  0  0  0  0  0  0  0  0  0  0  0
    2.2036   -1.8606    9.4515 H   0  0  0  0  0  0  0  0  0  0  0  0
    1.7331   -3.2203   11.4396 H   0  0  0  0  0  0  0  0  0  0  0  0
    1.0248   -4.8179    4.6001 H   0  0  0  0  0  0  0  0  0  0  0  0
   -1.3051   -4.1351    5.3804 H   0  0  0  0  0  0  0  0  0  0  0  0
   -0.5726   -2.9420    6.4258 H   0  0  0  0  0  0  0  0  0  0  0  0
    0.1369   -7.2441    7.9813 H   0  0  0  0  0  0  0  0  0  0  0  0
   -0.8001   -8.3064    9.9078 H   0  0  0  0  0  0  0  0  0  0  0  0
   -0.3465   -7.1480   13.3836 H   0  0  0  0  0  0  0  0  0  0  0  0
   -1.1343   -8.3328   12.3693 H   0  0  0  0  0  0  0  0  0  0  0  0
    0.6054   -8.1738   12.3373 H   0  0  0  0  0  0  0  0  0  0  0  0
   -1.8206   -5.1365   10.6668 H   0  0  0  0  0  0  0  0  0  0  0  0
   -2.5615   -6.5434   11.3913 H   0  0  0  0  0  0  0  0  0  0  0  0
   -1.7720   -5.3548   12.3998 H   0  0  0  0  0  0  0  0  0  0  0  0
  1  2  1  0  0  0  0
  1 30  1  0  0  0  0
  1 31  1  0  0  0  0
  1 32  1  0  0  0  0
  2  3  1  0  0  0  0
  3  4  1  0  0  0  0
  3  8  2  0  0  0  0
  4  5  2  0  0  0  0
  4 33  1  0  0  0  0
  5  6  1  0  0  0  0
  5 23  1  0  0  0  0
  6  7  2  0  0  0  0
  6 11  1  0  0  0  0
  7  8  1  0  0  0  0
  7 34  1  0  0  0  0
  8  9  1  0  0  0  0
  9 10  1  0  0  0  0
 10 35  1  0  0  0  0
 10 36  1  0  0  0  0
 10 37  1  0  0  0  0
 11 12  1  0  0  0  0
 11 21  1  0  0  0  0
 11 38  1  0  0  0  0
 12 13  2  0  0  0  0
 12 14  1  0  0  0  0
 14 15  1  0  0  0  0
 14 19  2  0  0  0  0
 15 16  2  0  0  0  0
 15 39  1  0  0  0  0
 16 17  1  0  0  0  0
 16 40  1  0  0  0  0
 17 18  2  0  0  0  0
 17 29  1  0  0  0  0
 18 19  1  0  0  0  0
 18 24  1  0  0  0  0
 19 20  1  0  0  0  0
 20 21  1  0  0  0  0
 21 22  1  0  0  0  0
 21 41  1  0  0  0  0
 22 23  1  0  0  0  0
 22 42  1  0  0  0  0
 22 43  1  0  0  0  0
 24 25  2  0  0  0  0
 24 44  1  0  0  0  0
 25 26  1  0  0  0  0
 25 45  1  0  0  0  0
 26 27  1  0  0  0  0
 26 28  1  0  0  0  0
 26 29  1  0  0  0  0
 27 46  1  0  0  0  0
 27 47  1  0  0  0  0
 27 48  1  0  0  0  0
 28 49  1  0  0  0  0
 28 50  1  0  0  0  0
 28 51  1  0  0  0  0
M  END
