
 OpenBabel03132512093D

 19 18  0  0  0  0  0  0  0  0999 V2000
    1.0488    0.0508    0.0710 C   0  0  0  0  0  0  0  0  0  0  0  0
    0.3686   -1.0420    0.5112 C   0  0  0  0  0  0  0  0  0  0  0  0
   -1.1514   -1.0420    0.5112 C   0  0  0  0  0  0  0  0  0  0  0  0
   -1.7548   -2.3856   -0.5408 S   0  0  0  0  0  0  0  0  0  0  0  0
   -1.0548   -2.1081   -2.5011 S   0  0  0  0  0  0  0  0  0  0  0  0
   -1.7548   -3.6670   -3.7217 S   0  0  0  0  0  0  0  0  0  0  0  0
   -1.1514   -3.4278   -5.4113 C   0  0  0  0  0  0  0  0  0  0  0  0
   -1.6581   -2.0985   -5.9468 C   0  0  0  0  0  0  0  0  0  0  0  0
   -0.7741   -1.1394   -6.3331 C   0  0  0  0  0  0  0  0  0  0  0  0
    0.5138    0.9103   -0.2753 H   0  0  0  0  0  0  0  0  0  0  0  0
    2.1188    0.0508    0.0710 H   0  0  0  0  0  0  0  0  0  0  0  0
    0.9036   -1.9015    0.8575 H   0  0  0  0  0  0  0  0  0  0  0  0
   -1.5081   -1.1834    1.5101 H   0  0  0  0  0  0  0  0  0  0  0  0
   -1.5081   -0.1063    0.1343 H   0  0  0  0  0  0  0  0  0  0  0  0
   -0.0814   -3.4278   -5.4113 H   0  0  0  0  0  0  0  0  0  0  0  0
   -1.5081   -4.2221   -6.0332 H   0  0  0  0  0  0  0  0  0  0  0  0
   -2.7101   -1.9172   -6.0198 H   0  0  0  0  0  0  0  0  0  0  0  0
   -1.1307   -0.2037   -6.7101 H   0  0  0  0  0  0  0  0  0  0  0  0
    0.2779   -1.3208   -6.2601 H   0  0  0  0  0  0  0  0  0  0  0  0
  1  2  2  0  0  0  0
  1 10  1  0  0  0  0
  1 11  1  0  0  0  0
  2  3  1  0  0  0  0
  2 12  1  0  0  0  0
  3  4  1  0  0  0  0
  3 13  1  0  0  0  0
  3 14  1  0  0  0  0
  4  5  1  0  0  0  0
  5  6  1  0  0  0  0
  6  7  1  0  0  0  0
  7  8  1  0  0  0  0
  7 15  1  0  0  0  0
  7 16  1  0  0  0  0
  8  9  2  0  0  0  0
  8 17  1  0  0  0  0
  9 18  1  0  0  0  0
  9 19  1  0  0  0  0
M  END
