
 OpenBabel03132512093D

 29 30  0  0  0  0  0  0  0  0999 V2000
    1.0818    0.0568    0.0090 O   0  0  0  0  0  0  0  0  0  0  0  0
    2.3527    0.0568    0.0090 C   0  0  0  0  0  0  0  0  0  0  0  0
    3.1127    1.2847    0.4835 C   0  0  0  0  0  0  0  0  0  0  0  0
    3.9866    0.9125    1.6702 C   0  0  0  0  0  0  0  0  0  0  0  0
    5.2468    1.0628    1.6032 O   0  0  0  0  0  0  0  0  0  0  0  0
    3.3533    0.3605    2.9369 C   0  0  0  0  0  0  0  0  0  0  0  0
    3.8212    0.7474    4.1818 C   0  0  0  0  0  0  0  0  0  0  0  0
    3.4456   -0.1237    5.2316 C   0  0  0  0  0  0  0  0  0  0  0  0
    2.4665   -1.0069    5.1579 C   0  0  0  0  0  0  0  0  0  0  0  0
    2.0013   -1.2959    3.9050 C   0  0  0  0  0  0  0  0  0  0  0  0
    2.4196   -0.5755    2.8124 C   0  0  0  0  0  0  0  0  0  0  0  0
    3.1127   -1.1711   -0.4654 C   0  0  0  0  0  0  0  0  0  0  0  0
    4.1619   -1.5978    0.3320 C   0  0  0  0  0  0  0  0  0  0  0  0
    4.9883   -2.5699   -0.2796 C   0  0  0  0  0  0  0  0  0  0  0  0
    4.6441   -3.2911   -1.3310 C   0  0  0  0  0  0  0  0  0  0  0  0
    3.5577   -2.8558   -2.0378 C   0  0  0  0  0  0  0  0  0  0  0  0
    2.7772   -1.8259   -1.5708 C   0  0  0  0  0  0  0  0  0  0  0  0
    3.7279    1.6524   -0.3110 H   0  0  0  0  0  0  0  0  0  0  0  0
    2.4174    2.0433    0.7766 H   0  0  0  0  0  0  0  0  0  0  0  0
    4.4131    1.6254    4.3357 H   0  0  0  0  0  0  0  0  0  0  0  0
    3.9928   -0.0626    6.1491 H   0  0  0  0  0  0  0  0  0  0  0  0
    2.0592   -1.4714    6.0315 H   0  0  0  0  0  0  0  0  0  0  0  0
    1.3015   -2.0945    3.7737 H   0  0  0  0  0  0  0  0  0  0  0  0
    1.9891   -0.7704    1.8524 H   0  0  0  0  0  0  0  0  0  0  0  0
    4.3319   -1.2260    1.3208 H   0  0  0  0  0  0  0  0  0  0  0  0
    5.9597   -2.7319    0.1388 H   0  0  0  0  0  0  0  0  0  0  0  0
    5.1862   -4.1690   -1.6144 H   0  0  0  0  0  0  0  0  0  0  0  0
    3.3117   -3.3239   -2.9680 H   0  0  0  0  0  0  0  0  0  0  0  0
    1.8910   -1.5490   -2.1027 H   0  0  0  0  0  0  0  0  0  0  0  0
  1  2  2  0  0  0  0
  2  3  1  0  0  0  0
  2 12  1  0  0  0  0
  3  4  1  0  0  0  0
  3 18  1  0  0  0  0
  3 19  1  0  0  0  0
  4  5  2  0  0  0  0
  4  6  1  0  0  0  0
  6  7  1  0  0  0  0
  6 11  2  0  0  0  0
  7  8  2  0  0  0  0
  7 20  1  0  0  0  0
  8  9  1  0  0  0  0
  8 21  1  0  0  0  0
  9 10  2  0  0  0  0
  9 22  1  0  0  0  0
 10 11  1  0  0  0  0
 10 23  1  0  0  0  0
 11 24  1  0  0  0  0
 12 13  1  0  0  0  0
 12 17  2  0  0  0  0
 13 14  2  0  0  0  0
 13 25  1  0  0  0  0
 14 15  1  0  0  0  0
 14 26  1  0  0  0  0
 15 16  2  0  0  0  0
 15 27  1  0  0  0  0
 16 17  1  0  0  0  0
 16 28  1  0  0  0  0
 17 29  1  0  0  0  0
M  END
