
 OpenBabel03132512093D

 27 26  0  0  0  0  0  0  0  0999 V2000
    0.9692   -0.0950    0.0048 C   0  0  0  0  0  0  0  0  0  0  0  0
    0.4625    1.1302   -0.7385 C   0  0  0  0  0  0  0  0  0  0  0  0
    0.9692    1.0991   -2.1712 C   0  0  0  0  0  0  0  0  0  0  0  0
    0.4625   -0.1572   -2.8606 C   0  0  0  0  0  0  0  0  0  0  0  0
   -1.6875   -0.1572   -2.8606 Sn  0  0  0  0  0  0  0  0  0  0  0  0
   -2.4042   -0.1132   -0.8341 C   0  0  0  0  0  0  0  0  0  0  0  0
   -1.8975   -1.3384   -0.0908 C   0  0  0  0  0  0  0  0  0  0  0  0
   -0.3775   -1.3384   -0.0908 C   0  0  0  0  0  0  0  0  0  0  0  0
    0.1292   -0.0821    0.5987 C   0  0  0  0  0  0  0  0  0  0  0  0
    0.6125   -0.9794   -0.4805 H   0  0  0  0  0  0  0  0  0  0  0  0
    0.6125   -0.0731    1.0134 H   0  0  0  0  0  0  0  0  0  0  0  0
    2.0392   -0.0950    0.0048 H   0  0  0  0  0  0  0  0  0  0  0  0
   -0.6075    1.1302   -0.7385 H   0  0  0  0  0  0  0  0  0  0  0  0
    0.8192    2.0146   -0.2531 H   0  0  0  0  0  0  0  0  0  0  0  0
    0.6125    1.9616   -2.6944 H   0  0  0  0  0  0  0  0  0  0  0  0
    2.0392    1.0991   -2.1712 H   0  0  0  0  0  0  0  0  0  0  0  0
    0.8192   -0.1791   -3.8692 H   0  0  0  0  0  0  0  0  0  0  0  0
    0.8192   -1.0197   -2.3374 H   0  0  0  0  0  0  0  0  0  0  0  0
   -2.0475    0.7712   -0.3487 H   0  0  0  0  0  0  0  0  0  0  0  0
   -3.4742   -0.1132   -0.8341 H   0  0  0  0  0  0  0  0  0  0  0  0
   -2.2542   -1.3166    0.9178 H   0  0  0  0  0  0  0  0  0  0  0  0
   -2.2542   -2.2228   -0.5761 H   0  0  0  0  0  0  0  0  0  0  0  0
   -0.0208   -2.2009    0.4325 H   0  0  0  0  0  0  0  0  0  0  0  0
   -0.0208   -1.3603   -1.0993 H   0  0  0  0  0  0  0  0  0  0  0  0
   -0.2275   -0.0602    1.6072 H   0  0  0  0  0  0  0  0  0  0  0  0
    1.1992   -0.0821    0.5987 H   0  0  0  0  0  0  0  0  0  0  0  0
   -0.2275    0.7804    0.0754 H   0  0  0  0  0  0  0  0  0  0  0  0
  1  2  1  0  0  0  0
  1 10  1  0  0  0  0
  1 11  1  0  0  0  0
  1 12  1  0  0  0  0
  2  3  1  0  0  0  0
  2 13  1  0  0  0  0
  2 14  1  0  0  0  0
  3  4  1  0  0  0  0
  3 15  1  0  0  0  0
  3 16  1  0  0  0  0
  4  5  1  0  0  0  0
  4 17  1  0  0  0  0
  4 18  1  0  0  0  0
  5  6  1  0  0  0  0
  6  7  1  0  0  0  0
  6 19  1  0  0  0  0
  6 20  1  0  0  0  0
  7  8  1  0  0  0  0
  7 21  1  0  0  0  0
  7 22  1  0  0  0  0
  8  9  1  0  0  0  0
  8 23  1  0  0  0  0
  8 24  1  0  0  0  0
  9 25  1  0  0  0  0
  9 26  1  0  0  0  0
  9 27  1  0  0  0  0
M  END
