
 OpenBabel03132514253D

 70 74  0  0  0  0  0  0  0  0999 V2000
    1.0590   -0.0791    0.0161 C   0  0  0  0  0  0  0  0  0  0  0  0
    0.5857   -1.3599   -0.3736 O   0  0  0  0  0  0  0  0  0  0  0  0
    1.0590   -1.6629   -1.6776 C   0  0  0  0  0  0  0  0  0  0  0  0
    0.5523   -0.6161   -2.6564 C   0  0  0  0  0  0  0  0  0  0  0  0
    2.5790   -1.6629   -1.6776 C   0  0  0  0  0  0  0  0  0  0  0  0
    0.5523   -3.0339   -2.0947 C   0  0  0  0  0  0  0  0  0  0  0  0
   -0.2298   -3.7566   -1.2481 C   0  0  0  0  0  0  0  0  0  0  0  0
   -0.7365   -5.1276   -1.6652 C   0  0  0  0  0  0  0  0  0  0  0  0
   -0.2298   -6.1743   -0.6864 C   0  0  0  0  0  0  0  0  0  0  0  0
   -0.7365   -5.8501    0.7094 C   0  0  0  0  0  0  0  0  0  0  0  0
   -0.8509   -7.0179    1.3608 C   0  0  0  0  0  0  0  0  0  0  0  0
   -1.7571   -8.0024    0.7943 C   0  0  0  0  0  0  0  0  0  0  0  0
   -1.1390   -9.3724    0.9012 C   0  0  0  0  0  0  0  0  0  0  0  0
    0.1857   -4.7812    1.2362 C   0  0  0  0  0  0  0  0  0  0  0  0
    1.0199   -4.2148    0.0853 C   0  0  0  0  0  0  0  0  0  0  0  0
    2.3991   -4.8716    0.0876 C   0  0  0  0  0  0  0  0  0  0  0  0
    2.5598   -5.7226   -1.1736 C   0  0  0  0  0  0  0  0  0  0  0  0
    3.3256   -7.0018   -0.8312 C   0  0  0  0  0  0  0  0  0  0  0  0
    4.6697   -6.6768   -0.5084 O   0  0  0  0  0  0  0  0  0  0  0  0
    3.3040   -7.9463   -2.0342 O   0  0  0  0  0  0  0  0  0  0  0  0
    2.9857   -9.3667   -1.5608 C   0  0  0  0  0  0  0  0  0  0  0  0
    1.4914   -9.5563   -1.5107 C   0  0  0  0  0  0  0  0  0  0  0  0
    0.9063   -9.8590   -0.3781 C   0  0  0  0  0  0  0  0  0  0  0  0
   -0.5871  -10.0485   -0.3285 C   0  0  0  0  0  0  0  0  0  0  0  0
    3.5706   -9.5817   -0.1744 C   0  0  0  0  0  0  0  0  0  0  0  0
    2.9646   -8.5776    0.7925 C   0  0  0  0  0  0  0  0  0  0  0  0
    1.5567   -8.7562    0.8397 O   0  0  0  0  0  0  0  0  0  0  0  0
    3.5494   -8.7926    2.1789 C   0  0  0  0  0  0  0  0  0  0  0  0
    5.0565   -8.6013    2.1283 C   0  0  0  0  0  0  0  0  0  0  0  0
    2.7330   -4.7150   -2.2984 C   0  0  0  0  0  0  0  0  0  0  0  0
    0.7023    0.1492    0.9988 H   0  0  0  0  0  0  0  0  0  0  0  0
    0.7023    0.6577   -0.6729 H   0  0  0  0  0  0  0  0  0  0  0  0
    2.1290   -0.0791    0.0161 H   0  0  0  0  0  0  0  0  0  0  0  0
    0.9090    0.3490   -2.3628 H   0  0  0  0  0  0  0  0  0  0  0  0
    0.9090   -0.8444   -3.6390 H   0  0  0  0  0  0  0  0  0  0  0  0
   -0.5177   -0.6161   -2.6564 H   0  0  0  0  0  0  0  0  0  0  0  0
    2.9357   -2.3997   -0.9886 H   0  0  0  0  0  0  0  0  0  0  0  0
    2.9357   -1.8912   -2.6603 H   0  0  0  0  0  0  0  0  0  0  0  0
    2.9357   -0.6978   -1.3840 H   0  0  0  0  0  0  0  0  0  0  0  0
    0.8108   -3.4307   -3.0543 H   0  0  0  0  0  0  0  0  0  0  0  0
   -0.4883   -3.3598   -0.2886 H   0  0  0  0  0  0  0  0  0  0  0  0
   -1.8065   -5.1276   -1.6652 H   0  0  0  0  0  0  0  0  0  0  0  0
   -0.3798   -5.3559   -2.6479 H   0  0  0  0  0  0  0  0  0  0  0  0
   -0.5865   -7.1395   -0.9801 H   0  0  0  0  0  0  0  0  0  0  0  0
    0.8402   -6.1743   -0.6864 H   0  0  0  0  0  0  0  0  0  0  0  0
   -1.7138   -5.4249    0.8042 H   0  0  0  0  0  0  0  0  0  0  0  0
   -1.2728   -6.7660    2.3114 H   0  0  0  0  0  0  0  0  0  0  0  0
    0.1221   -7.4610    1.4028 H   0  0  0  0  0  0  0  0  0  0  0  0
   -1.9375   -7.7713   -0.2348 H   0  0  0  0  0  0  0  0  0  0  0  0
   -2.6828   -7.9857    1.3306 H   0  0  0  0  0  0  0  0  0  0  0  0
   -1.2893  -10.2907    1.4295 H   0  0  0  0  0  0  0  0  0  0  0  0
    0.3918   -4.0019    1.9398 H   0  0  0  0  0  0  0  0  0  0  0  0
    0.5297   -4.4159   -0.8443 H   0  0  0  0  0  0  0  0  0  0  0  0
    1.1277   -3.1575    0.2091 H   0  0  0  0  0  0  0  0  0  0  0  0
    3.1550   -4.1145    0.1062 H   0  0  0  0  0  0  0  0  0  0  0  0
    2.4966   -5.4937    0.9527 H   0  0  0  0  0  0  0  0  0  0  0  0
    2.8635   -7.4807    0.0067 H   0  0  0  0  0  0  0  0  0  0  0  0
    5.1016   -6.2292   -1.2914 H   0  0  0  0  0  0  0  0  0  0  0  0
    0.9080   -9.4437   -2.4005 H   0  0  0  0  0  0  0  0  0  0  0  0
    1.4896   -9.9716    0.5118 H   0  0  0  0  0  0  0  0  0  0  0  0
   -1.2553  -10.8089   -0.6754 H   0  0  0  0  0  0  0  0  0  0  0  0
    3.3480  -10.5746    0.1565 H   0  0  0  0  0  0  0  0  0  0  0  0
    4.6315   -9.4471   -0.2100 H   0  0  0  0  0  0  0  0  0  0  0  0
    3.1872   -7.5847    0.4615 H   0  0  0  0  0  0  0  0  0  0  0  0
    1.1719   -8.6148   -0.0724 H   0  0  0  0  0  0  0  0  0  0  0  0
    3.1228   -8.0857    2.8595 H   0  0  0  0  0  0  0  0  0  0  0  0
    3.3268   -9.7855    2.5098 H   0  0  0  0  0  0  0  0  0  0  0  0
    5.4682   -8.7527    3.1042 H   0  0  0  0  0  0  0  0  0  0  0  0
    5.4831   -9.3082    1.4477 H   0  0  0  0  0  0  0  0  0  0  0  0
    3.4912   -4.0089   -2.0310 H   0  0  0  0  0  0  0  0  0  0  0  0
  1  2  1  0  0  0  0
  1 31  1  0  0  0  0
  1 32  1  0  0  0  0
  1 33  1  0  0  0  0
  2  3  1  0  0  0  0
  3  4  1  0  0  0  0
  3  5  1  0  0  0  0
  3  6  1  0  0  0  0
  4 34  1  0  0  0  0
  4 35  1  0  0  0  0
  4 36  1  0  0  0  0
  5 37  1  0  0  0  0
  5 38  1  0  0  0  0
  5 39  1  0  0  0  0
  6  7  2  0  0  0  0
  6 40  1  0  0  0  0
  7  8  1  0  0  0  0
  7 41  1  0  0  0  0
  8  9  1  0  0  0  0
  8 42  1  0  0  0  0
  8 43  1  0  0  0  0
  9 10  1  0  0  0  0
  9 44  1  0  0  0  0
  9 45  1  0  0  0  0
 10 11  1  0  0  0  0
 10 14  1  0  0  0  0
 10 46  1  0  0  0  0
 11 12  1  0  0  0  0
 11 47  1  0  0  0  0
 11 48  1  0  0  0  0
 12 13  1  0  0  0  0
 12 49  1  0  0  0  0
 12 50  1  0  0  0  0
 13 14  1  0  0  0  0
 13 24  1  0  0  0  0
 13 51  1  0  0  0  0
 14 15  1  0  0  0  0
 14 52  1  0  0  0  0
 15 16  1  0  0  0  0
 15 53  1  0  0  0  0
 15 54  1  0  0  0  0
 16 17  1  0  0  0  0
 16 55  1  0  0  0  0
 16 56  1  0  0  0  0
 17 18  1  0  0  0  0
 17 24  1  0  0  0  0
 17 30  1  0  0  0  0
 18 19  1  0  0  0  0
 18 20  1  0  0  0  0
 18 57  1  0  0  0  0
 19 58  1  0  0  0  0
 20 21  1  0  0  0  0
 21 22  1  0  0  0  0
 21 25  1  0  0  0  0
 21 30  1  0  0  0  0
 22 23  2  0  0  0  0
 22 59  1  0  0  0  0
 23 24  1  0  0  0  0
 23 60  1  0  0  0  0
 24 61  1  0  0  0  0
 25 26  1  0  0  0  0
 25 62  1  0  0  0  0
 25 63  1  0  0  0  0
 26 27  1  0  0  0  0
 26 28  1  0  0  0  0
 26 64  1  0  0  0  0
 27 65  1  0  0  0  0
 28 29  1  0  0  0  0
 28 66  1  0  0  0  0
 28 67  1  0  0  0  0
 29 30  1  0  0  0  0
 29 68  1  0  0  0  0
 29 69  1  0  0  0  0
 30 70  1  0  0  0  0
M  END
