
 OpenBabel03132512083D

 19 20  0  0  0  0  0  0  0  0999 V2000
    1.0663    0.0624   -0.0414 O   0  0  0  0  0  0  0  0  0  0  0  0
    2.3372    0.0624   -0.0414 C   0  0  0  0  0  0  0  0  0  0  0  0
    3.0224    1.2388   -0.2425 C   0  0  0  0  0  0  0  0  0  0  0  0
    4.3422    1.3202    0.2628 C   0  0  0  0  0  0  0  0  0  0  0  0
    5.0714    0.1372    0.2225 C   0  0  0  0  0  0  0  0  0  0  0  0
    6.3907    0.1102    0.2389 C   0  0  0  0  0  0  0  0  0  0  0  0
    7.0336   -1.0443    0.1936 C   0  0  0  0  0  0  0  0  0  0  0  0
    8.4534   -1.0403    0.2128 O   0  0  0  0  0  0  0  0  0  0  0  0
    6.4008   -2.1984    0.1314 C   0  0  0  0  0  0  0  0  0  0  0  0
    7.1541   -3.4012    0.0834 O   0  0  0  0  0  0  0  0  0  0  0  0
    5.0741   -2.2619    0.1124 C   0  0  0  0  0  0  0  0  0  0  0  0
    4.3533   -1.0737    0.1603 C   0  0  0  0  0  0  0  0  0  0  0  0
    2.9859   -1.0513    0.1490 O   0  0  0  0  0  0  0  0  0  0  0  0
    2.5746    2.0606   -0.7611 H   0  0  0  0  0  0  0  0  0  0  0  0
    4.7508    2.2303    0.6495 H   0  0  0  0  0  0  0  0  0  0  0  0
    6.9420    1.0259    0.2892 H   0  0  0  0  0  0  0  0  0  0  0  0
    8.9564   -1.9040    0.1792 H   0  0  0  0  0  0  0  0  0  0  0  0
    8.1534   -3.3663    0.0970 H   0  0  0  0  0  0  0  0  0  0  0  0
    4.5717   -3.2053    0.0616 H   0  0  0  0  0  0  0  0  0  0  0  0
  1  2  2  0  0  0  0
  2  3  1  0  0  0  0
  2 13  1  0  0  0  0
  3  4  2  0  0  0  0
  3 14  1  0  0  0  0
  4  5  1  0  0  0  0
  4 15  1  0  0  0  0
  5  6  1  0  0  0  0
  5 12  2  0  0  0  0
  6  7  2  0  0  0  0
  6 16  1  0  0  0  0
  7  8  1  0  0  0  0
  7  9  1  0  0  0  0
  8 17  1  0  0  0  0
  9 10  1  0  0  0  0
  9 11  2  0  0  0  0
 10 18  1  0  0  0  0
 11 12  1  0  0  0  0
 11 19  1  0  0  0  0
 12 13  1  0  0  0  0
M  END
