
 OpenBabel03132512093D

 42 41  0  0  0  0  0  0  0  0999 V2000
    1.0733    0.0451    0.0509 C   0  0  0  0  0  0  0  0  0  0  0  0
    0.5666   -1.3673   -0.1916 C   0  0  0  0  0  0  0  0  0  0  0  0
   -0.3072   -2.0501    0.8479 C   0  0  0  0  0  0  0  0  0  0  0  0
    0.8953   -2.0203   -1.3389 C   0  0  0  0  0  0  0  0  0  0  0  0
    1.7692   -1.3374   -2.3783 C   0  0  0  0  0  0  0  0  0  0  0  0
    3.0358   -2.1509   -2.5887 C   0  0  0  0  0  0  0  0  0  0  0  0
    2.6686   -3.5444   -3.0720 C   0  0  0  0  0  0  0  0  0  0  0  0
    3.1753   -4.0407   -4.4164 C   0  0  0  0  0  0  0  0  0  0  0  0
    1.8865   -4.3475   -2.3013 C   0  0  0  0  0  0  0  0  0  0  0  0
    1.3798   -3.8513   -0.9569 C   0  0  0  0  0  0  0  0  0  0  0  0
   -0.1402   -3.8513   -0.9569 C   0  0  0  0  0  0  0  0  0  0  0  0
   -0.6468   -5.2637   -1.1993 C   0  0  0  0  0  0  0  0  0  0  0  0
   -1.5207   -5.9465   -0.1598 C   0  0  0  0  0  0  0  0  0  0  0  0
   -0.3182   -5.9167   -2.3466 C   0  0  0  0  0  0  0  0  0  0  0  0
    0.5557   -5.2338   -3.3861 C   0  0  0  0  0  0  0  0  0  0  0  0
    1.7390   -5.9938   -3.5826 O   0  0  0  0  0  0  0  0  0  0  0  0
    0.7166    0.3945    0.9973 H   0  0  0  0  0  0  0  0  0  0  0  0
    0.7166    0.6901   -0.7248 H   0  0  0  0  0  0  0  0  0  0  0  0
    2.1433    0.0451    0.0509 H   0  0  0  0  0  0  0  0  0  0  0  0
   -1.2523   -2.2983    0.4119 H   0  0  0  0  0  0  0  0  0  0  0  0
    0.1743   -2.9432    1.1876 H   0  0  0  0  0  0  0  0  0  0  0  0
   -0.4588   -1.3896    1.6759 H   0  0  0  0  0  0  0  0  0  0  0  0
    0.5386   -3.0145   -1.5095 H   0  0  0  0  0  0  0  0  0  0  0  0
    1.2342   -1.2651   -3.3021 H   0  0  0  0  0  0  0  0  0  0  0  0
    2.0276   -0.3564   -2.0381 H   0  0  0  0  0  0  0  0  0  0  0  0
    3.6510   -1.6702   -3.3204 H   0  0  0  0  0  0  0  0  0  0  0  0
    3.5708   -2.2232   -1.6649 H   0  0  0  0  0  0  0  0  0  0  0  0
    3.7697   -4.9185   -4.2716 H   0  0  0  0  0  0  0  0  0  0  0  0
    2.3431   -4.2735   -5.0473 H   0  0  0  0  0  0  0  0  0  0  0  0
    3.7697   -3.2793   -4.8766 H   0  0  0  0  0  0  0  0  0  0  0  0
    1.6280   -5.3285   -2.6415 H   0  0  0  0  0  0  0  0  0  0  0  0
    1.7365   -4.4962   -0.1811 H   0  0  0  0  0  0  0  0  0  0  0  0
    1.7365   -2.8570   -0.7862 H   0  0  0  0  0  0  0  0  0  0  0  0
   -0.4968   -3.5020   -0.0105 H   0  0  0  0  0  0  0  0  0  0  0  0
   -0.4968   -3.2063   -1.7326 H   0  0  0  0  0  0  0  0  0  0  0  0
   -2.4658   -6.1947   -0.5958 H   0  0  0  0  0  0  0  0  0  0  0  0
   -1.0392   -6.8396    0.1799 H   0  0  0  0  0  0  0  0  0  0  0  0
   -1.6723   -5.2860    0.6682 H   0  0  0  0  0  0  0  0  0  0  0  0
   -0.6749   -6.9109   -2.5173 H   0  0  0  0  0  0  0  0  0  0  0  0
    0.0207   -5.1615   -4.3099 H   0  0  0  0  0  0  0  0  0  0  0  0
    0.8142   -4.2528   -3.0459 H   0  0  0  0  0  0  0  0  0  0  0  0
    2.2390   -6.0613   -2.7192 H   0  0  0  0  0  0  0  0  0  0  0  0
  1  2  1  0  0  0  0
  1 17  1  0  0  0  0
  1 18  1  0  0  0  0
  1 19  1  0  0  0  0
  2  3  1  0  0  0  0
  2  4  2  0  0  0  0
  3 20  1  0  0  0  0
  3 21  1  0  0  0  0
  3 22  1  0  0  0  0
  4  5  1  0  0  0  0
  4 23  1  0  0  0  0
  5  6  1  0  0  0  0
  5 24  1  0  0  0  0
  5 25  1  0  0  0  0
  6  7  1  0  0  0  0
  6 26  1  0  0  0  0
  6 27  1  0  0  0  0
  7  8  1  0  0  0  0
  7  9  2  0  0  0  0
  8 28  1  0  0  0  0
  8 29  1  0  0  0  0
  8 30  1  0  0  0  0
  9 10  1  0  0  0  0
  9 31  1  0  0  0  0
 10 11  1  0  0  0  0
 10 32  1  0  0  0  0
 10 33  1  0  0  0  0
 11 12  1  0  0  0  0
 11 34  1  0  0  0  0
 11 35  1  0  0  0  0
 12 13  1  0  0  0  0
 12 14  2  0  0  0  0
 13 36  1  0  0  0  0
 13 37  1  0  0  0  0
 13 38  1  0  0  0  0
 14 15  1  0  0  0  0
 14 39  1  0  0  0  0
 15 16  1  0  0  0  0
 15 40  1  0  0  0  0
 15 41  1  0  0  0  0
 16 42  1  0  0  0  0
M  END
