
 OpenBabel03132512093D

 61 64  0  0  0  0  0  0  0  0999 V2000
    0.9283   -0.0157    0.0679 C   0  0  0  0  0  0  0  0  0  0  0  0
    0.4217    1.1571   -0.7556 C   0  0  0  0  0  0  0  0  0  0  0  0
   -0.7787    1.5850    0.0920 O   0  0  0  0  0  0  0  0  0  0  0  0
   -0.3161    2.1712    1.3106 C   0  0  0  0  0  0  0  0  0  0  0  0
    0.5702    1.1372    1.9858 C   0  0  0  0  0  0  0  0  0  0  0  0
    1.1602    1.3470    3.2284 C   0  0  0  0  0  0  0  0  0  0  0  0
    1.8981    0.3396    3.8218 C   0  0  0  0  0  0  0  0  0  0  0  0
    2.0368   -0.8875    3.1726 C   0  0  0  0  0  0  0  0  0  0  0  0
    1.4411   -1.0988    1.9206 C   0  0  0  0  0  0  0  0  0  0  0  0
    0.7065   -0.0706    1.3377 C   0  0  0  0  0  0  0  0  0  0  0  0
    0.0956   -0.2671    0.0710 O   0  0  0  0  0  0  0  0  0  0  0  0
    1.5703   -2.2798    1.2795 C   0  0  0  0  0  0  0  0  0  0  0  0
    1.0070   -2.4144    0.1483 O   0  0  0  0  0  0  0  0  0  0  0  0
    2.2646   -3.3239    1.7743 C   0  0  0  0  0  0  0  0  0  0  0  0
    2.3475   -4.5060    1.0497 C   0  0  0  0  0  0  0  0  0  0  0  0
    3.0629   -5.5838    1.5605 C   0  0  0  0  0  0  0  0  0  0  0  0
    3.7005   -5.4866    2.8022 C   0  0  0  0  0  0  0  0  0  0  0  0
    4.4793   -6.6716    3.3498 C   0  0  0  0  0  0  0  0  0  0  0  0
    3.5470   -7.8617    3.5068 C   0  0  0  0  0  0  0  0  0  0  0  0
    2.9567   -8.2249    2.1540 C   0  0  0  0  0  0  0  0  0  0  0  0
    4.2746   -8.9687    4.0183 O   0  0  0  0  0  0  0  0  0  0  0  0
    2.4261   -7.5039    4.4691 C   0  0  0  0  0  0  0  0  0  0  0  0
    3.0164   -7.1407    5.8219 C   0  0  0  0  0  0  0  0  0  0  0  0
    2.8161   -5.9859    6.3132 O   0  0  0  0  0  0  0  0  0  0  0  0
    3.7916   -8.0917    6.5367 O   0  0  0  0  0  0  0  0  0  0  0  0
    3.6244   -4.3295    3.5231 C   0  0  0  0  0  0  0  0  0  0  0  0
    4.2721   -4.2330    4.7831 O   0  0  0  0  0  0  0  0  0  0  0  0
    2.9090   -3.2414    3.0200 C   0  0  0  0  0  0  0  0  0  0  0  0
    2.8150   -1.9827    3.7858 C   0  0  0  0  0  0  0  0  0  0  0  0
    3.3766   -1.8481    4.9179 O   0  0  0  0  0  0  0  0  0  0  0  0
    0.4821    3.3421    1.1281 C   0  0  0  0  0  0  0  0  0  0  0  0
    1.7335    2.9853    0.3224 C   0  0  0  0  0  0  0  0  0  0  0  0
    2.5169    2.0483    1.0467 O   0  0  0  0  0  0  0  0  0  0  0  0
    1.3112    2.3767   -1.0185 C   0  0  0  0  0  0  0  0  0  0  0  0
    2.4627    1.9815   -1.7494 O   0  0  0  0  0  0  0  0  0  0  0  0
    0.5717   -0.9305   -0.3572 H   0  0  0  0  0  0  0  0  0  0  0  0
    0.5717    0.0736    1.0728 H   0  0  0  0  0  0  0  0  0  0  0  0
    1.9983   -0.0157    0.0679 H   0  0  0  0  0  0  0  0  0  0  0  0
    0.2804    0.8258   -1.7631 H   0  0  0  0  0  0  0  0  0  0  0  0
   -1.1682    2.4341    1.9018 H   0  0  0  0  0  0  0  0  0  0  0  0
    1.0428    2.2878    3.7246 H   0  0  0  0  0  0  0  0  0  0  0  0
    2.3601    0.5002    4.7734 H   0  0  0  0  0  0  0  0  0  0  0  0
   -0.4326    0.4708   -0.3493 H   0  0  0  0  0  0  0  0  0  0  0  0
    1.8617   -4.5873    0.0998 H   0  0  0  0  0  0  0  0  0  0  0  0
    3.1262   -6.4933    1.0003 H   0  0  0  0  0  0  0  0  0  0  0  0
    5.2683   -6.9235    2.6724 H   0  0  0  0  0  0  0  0  0  0  0  0
    4.8948   -6.4159    4.3021 H   0  0  0  0  0  0  0  0  0  0  0  0
    3.7457   -8.4768    1.4766 H   0  0  0  0  0  0  0  0  0  0  0  0
    2.3004   -9.0627    2.2645 H   0  0  0  0  0  0  0  0  0  0  0  0
    2.4085   -7.3908    1.7685 H   0  0  0  0  0  0  0  0  0  0  0  0
    5.0120   -9.2041    3.3852 H   0  0  0  0  0  0  0  0  0  0  0  0
    1.8779   -6.6697    4.0836 H   0  0  0  0  0  0  0  0  0  0  0  0
    1.7698   -8.3417    4.5796 H   0  0  0  0  0  0  0  0  0  0  0  0
    4.1799   -7.8528    7.4267 H   0  0  0  0  0  0  0  0  0  0  0  0
    4.2160   -3.3853    5.3105 H   0  0  0  0  0  0  0  0  0  0  0  0
    0.7707    3.7296    2.0828 H   0  0  0  0  0  0  0  0  0  0  0  0
   -0.0838    4.0808    0.5999 H   0  0  0  0  0  0  0  0  0  0  0  0
    2.3114    3.8688    0.1485 H   0  0  0  0  0  0  0  0  0  0  0  0
    1.9797    1.2210    1.2111 H   0  0  0  0  0  0  0  0  0  0  0  0
    0.7665    3.1022   -1.5859 H   0  0  0  0  0  0  0  0  0  0  0  0
    2.9752    1.3032   -1.2228 H   0  0  0  0  0  0  0  0  0  0  0  0
  1  2  1  0  0  0  0
  1 36  1  0  0  0  0
  1 37  1  0  0  0  0
  1 38  1  0  0  0  0
  2  3  1  0  0  0  0
  2 34  1  0  0  0  0
  2 39  1  0  0  0  0
  3  4  1  0  0  0  0
  4  5  1  0  0  0  0
  4 31  1  0  0  0  0
  4 40  1  0  0  0  0
  5  6  1  0  0  0  0
  5 10  2  0  0  0  0
  6  7  2  0  0  0  0
  6 41  1  0  0  0  0
  7  8  1  0  0  0  0
  7 42  1  0  0  0  0
  8  9  2  0  0  0  0
  8 29  1  0  0  0  0
  9 10  1  0  0  0  0
  9 12  1  0  0  0  0
 10 11  1  0  0  0  0
 11 43  1  0  0  0  0
 12 13  2  0  0  0  0
 12 14  1  0  0  0  0
 14 15  1  0  0  0  0
 14 28  2  0  0  0  0
 15 16  2  0  0  0  0
 15 44  1  0  0  0  0
 16 17  1  0  0  0  0
 16 45  1  0  0  0  0
 17 18  1  0  0  0  0
 17 26  2  0  0  0  0
 18 19  1  0  0  0  0
 18 46  1  0  0  0  0
 18 47  1  0  0  0  0
 19 20  1  0  0  0  0
 19 21  1  0  0  0  0
 19 22  1  0  0  0  0
 20 48  1  0  0  0  0
 20 49  1  0  0  0  0
 20 50  1  0  0  0  0
 21 51  1  0  0  0  0
 22 23  1  0  0  0  0
 22 52  1  0  0  0  0
 22 53  1  0  0  0  0
 23 24  2  0  0  0  0
 23 25  1  0  0  0  0
 25 54  1  0  0  0  0
 26 27  1  0  0  0  0
 26 28  1  0  0  0  0
 27 55  1  0  0  0  0
 28 29  1  0  0  0  0
 29 30  2  0  0  0  0
 31 32  1  0  0  0  0
 31 56  1  0  0  0  0
 31 57  1  0  0  0  0
 32 33  1  0  0  0  0
 32 34  1  0  0  0  0
 32 58  1  0  0  0  0
 33 59  1  0  0  0  0
 34 35  1  0  0  0  0
 34 60  1  0  0  0  0
 35 61  1  0  0  0  0
M  END
