
 OpenBabel03132514253D

 22 21  0  0  0  0  0  0  0  0999 V2000
    1.0509    0.0543   -0.0668 C   0  0  0  0  0  0  0  0  0  0  0  0
    0.5442    0.7140   -1.3390 C   0  0  0  0  0  0  0  0  0  0  0  0
   -0.3296   -0.0691   -2.3051 C   0  0  0  0  0  0  0  0  0  0  0  0
    0.8729    2.0054   -1.6129 C   0  0  0  0  0  0  0  0  0  0  0  0
    1.7468    2.7886   -0.6467 C   0  0  0  0  0  0  0  0  0  0  0  0
    2.9718    3.2212   -1.3346 N   0  0  0  0  0  0  0  0  0  0  0  0
    3.7885    2.3269   -1.8484 C   0  0  0  0  0  0  0  0  0  0  0  0
    3.4761    0.8950   -1.7347 N   0  0  0  0  0  0  0  0  0  0  0  0
    5.0135    2.7595   -2.5362 N   0  0  0  0  0  0  0  0  0  0  0  0
    0.6942   -0.9535   -0.0212 H   0  0  0  0  0  0  0  0  0  0  0  0
    0.6942    0.5977    0.7832 H   0  0  0  0  0  0  0  0  0  0  0  0
    2.1209    0.0543   -0.0668 H   0  0  0  0  0  0  0  0  0  0  0  0
   -1.2747    0.4216   -2.4092 H   0  0  0  0  0  0  0  0  0  0  0  0
    0.1519   -0.1217   -3.2591 H   0  0  0  0  0  0  0  0  0  0  0  0
   -0.4812   -1.0586   -1.9270 H   0  0  0  0  0  0  0  0  0  0  0  0
    0.5162    2.4698   -2.5084 H   0  0  0  0  0  0  0  0  0  0  0  0
    1.2118    3.6469   -0.2974 H   0  0  0  0  0  0  0  0  0  0  0  0
    2.0053    2.1667    0.1847 H   0  0  0  0  0  0  0  0  0  0  0  0
    4.1093    0.2016   -2.1331 H   0  0  0  0  0  0  0  0  0  0  0  0
    2.6261    0.5948   -1.2574 H   0  0  0  0  0  0  0  0  0  0  0  0
    5.2303    3.7531   -2.6151 H   0  0  0  0  0  0  0  0  0  0  0  0
    5.6467    2.0662   -2.9346 H   0  0  0  0  0  0  0  0  0  0  0  0
  1  2  1  0  0  0  0
  1 10  1  0  0  0  0
  1 11  1  0  0  0  0
  1 12  1  0  0  0  0
  2  3  1  0  0  0  0
  2  4  2  0  0  0  0
  3 13  1  0  0  0  0
  3 14  1  0  0  0  0
  3 15  1  0  0  0  0
  4  5  1  0  0  0  0
  4 16  1  0  0  0  0
  5  6  1  0  0  0  0
  5 17  1  0  0  0  0
  5 18  1  0  0  0  0
  6  7  2  0  0  0  0
  7  8  1  0  0  0  0
  7  9  1  0  0  0  0
  8 19  1  0  0  0  0
  8 20  1  0  0  0  0
  9 21  1  0  0  0  0
  9 22  1  0  0  0  0
M  END
