
 OpenBabel03132512093D

 22 21  0  0  0  0  0  0  0  0999 V2000
    1.0547    0.0695    0.0467 C   0  0  0  0  0  0  0  0  0  0  0  0
    0.5480   -1.3527   -0.1293 C   0  0  0  0  0  0  0  0  0  0  0  0
   -0.3259   -1.9861    0.9410 C   0  0  0  0  0  0  0  0  0  0  0  0
    0.8766   -2.0587   -1.2447 C   0  0  0  0  0  0  0  0  0  0  0  0
    1.7505   -1.4253   -2.3150 C   0  0  0  0  0  0  0  0  0  0  0  0
    2.9755   -2.2207   -2.4814 N   0  0  0  0  0  0  0  0  0  0  0  0
    3.7922   -2.3914   -1.4642 C   0  0  0  0  0  0  0  0  0  0  0  0
    3.4798   -1.7867   -0.1613 N   0  0  0  0  0  0  0  0  0  0  0  0
    5.0172   -3.1867   -1.6306 N   0  0  0  0  0  0  0  0  0  0  0  0
    0.6980    0.4628    0.9757 H   0  0  0  0  0  0  0  0  0  0  0  0
    0.6980    0.6774   -0.7583 H   0  0  0  0  0  0  0  0  0  0  0  0
    2.1247    0.0695    0.0467 H   0  0  0  0  0  0  0  0  0  0  0  0
   -1.2710   -2.2544    0.5171 H   0  0  0  0  0  0  0  0  0  0  0  0
    0.1557   -2.8623    1.3222 H   0  0  0  0  0  0  0  0  0  0  0  0
   -0.4775   -1.2875    1.7372 H   0  0  0  0  0  0  0  0  0  0  0  0
    0.5200   -3.0599   -1.3686 H   0  0  0  0  0  0  0  0  0  0  0  0
    1.2155   -1.3964   -3.2412 H   0  0  0  0  0  0  0  0  0  0  0  0
    2.0090   -0.4295   -2.0212 H   0  0  0  0  0  0  0  0  0  0  0  0
    4.1130   -1.9190    0.6274 H   0  0  0  0  0  0  0  0  0  0  0  0
    2.6298   -1.2348   -0.0458 H   0  0  0  0  0  0  0  0  0  0  0  0
    5.2340   -3.6063   -2.5347 H   0  0  0  0  0  0  0  0  0  0  0  0
    5.6504   -3.3190   -0.8420 H   0  0  0  0  0  0  0  0  0  0  0  0
  1  2  1  0  0  0  0
  1 10  1  0  0  0  0
  1 11  1  0  0  0  0
  1 12  1  0  0  0  0
  2  3  1  0  0  0  0
  2  4  2  0  0  0  0
  3 13  1  0  0  0  0
  3 14  1  0  0  0  0
  3 15  1  0  0  0  0
  4  5  1  0  0  0  0
  4 16  1  0  0  0  0
  5  6  1  0  0  0  0
  5 17  1  0  0  0  0
  5 18  1  0  0  0  0
  6  7  2  0  0  0  0
  7  8  1  0  0  0  0
  7  9  1  0  0  0  0
  8 19  1  0  0  0  0
  8 20  1  0  0  0  0
  9 21  1  0  0  0  0
  9 22  1  0  0  0  0
M  END
