
 OpenBabel03132512093D

127132  0  0  0  0  0  0  0  0999 V2000
    1.0410    0.0713   -0.0569 C   0  0  0  0  0  0  0  0  0  0  0  0
    0.5343   -0.6769    1.1653 C   0  0  0  0  0  0  0  0  0  0  0  0
   -0.3396    0.0359    2.1845 C   0  0  0  0  0  0  0  0  0  0  0  0
    0.8629   -1.9844    1.3471 C   0  0  0  0  0  0  0  0  0  0  0  0
    1.7368   -2.6972    0.3280 C   0  0  0  0  0  0  0  0  0  0  0  0
    3.0035   -3.1938    1.0057 C   0  0  0  0  0  0  0  0  0  0  0  0
    2.6363   -4.1587    2.1213 C   0  0  0  0  0  0  0  0  0  0  0  0
    1.8763   -5.3397    1.5400 C   0  0  0  0  0  0  0  0  0  0  0  0
    3.8196   -4.6226    2.7545 O   0  0  0  0  0  0  0  0  0  0  0  0
    1.7624   -3.4459    3.1405 C   0  0  0  0  0  0  0  0  0  0  0  0
    0.7223   -2.5953    2.4075 C   0  0  0  0  0  0  0  0  0  0  0  0
    1.2687   -2.1911    1.0363 C   0  0  0  0  0  0  0  0  0  0  0  0
    0.4024   -2.8114   -0.0612 C   0  0  0  0  0  0  0  0  0  0  0  0
   -0.8524   -2.6001   -0.8926 C   0  0  0  0  0  0  0  0  0  0  0  0
    1.0512   -4.4824    4.0119 C   0  0  0  0  0  0  0  0  0  0  0  0
    1.9789   -5.6772    4.2441 C   0  0  0  0  0  0  0  0  0  0  0  0
    2.9266   -5.7520    3.1893 O   0  0  0  0  0  0  0  0  0  0  0  0
    1.1541   -6.9649    4.2800 C   0  0  0  0  0  0  0  0  0  0  0  0
    1.9025   -8.0712    3.5344 C   0  0  0  0  0  0  0  0  0  0  0  0
    0.9676   -8.7214    2.5123 C   0  0  0  0  0  0  0  0  0  0  0  0
    0.0173   -9.2924    3.5522 C   0  0  0  0  0  0  0  0  0  0  0  0
    1.7588   -9.0749    1.2513 C   0  0  0  0  0  0  0  0  0  0  0  0
    0.8558   -8.9777    0.0480 C   0  0  0  0  0  0  0  0  0  0  0  0
    0.6440   -7.7883   -0.5374 C   0  0  0  0  0  0  0  0  0  0  0  0
   -0.0325   -7.0120    0.4405 O   0  0  0  0  0  0  0  0  0  0  0  0
   -1.2743   -7.6247    0.7551 C   0  0  0  0  0  0  0  0  0  0  0  0
   -1.8328   -7.7639   -0.6630 O   0  0  0  0  0  0  0  0  0  0  0  0
   -0.8665   -8.4113   -1.4935 C   0  0  0  0  0  0  0  0  0  0  0  0
    0.4044   -7.5809   -1.4169 C   0  0  0  0  0  0  0  0  0  0  0  0
    1.3994   -8.1606   -2.2477 O   0  0  0  0  0  0  0  0  0  0  0  0
   -0.5228   -9.7312   -1.0680 C   0  0  0  0  0  0  0  0  0  0  0  0
    0.4188  -10.2902   -1.9722 O   0  0  0  0  0  0  0  0  0  0  0  0
    0.0887   -9.6716    0.3337 C   0  0  0  0  0  0  0  0  0  0  0  0
    1.2883   -8.9125    0.2998 O   0  0  0  0  0  0  0  0  0  0  0  0
   -0.9106   -9.0136    1.2903 C   0  0  0  0  0  0  0  0  0  0  0  0
   -0.3308   -8.8933    2.5809 O   0  0  0  0  0  0  0  0  0  0  0  0
    0.8415   -8.0961    2.5007 C   0  0  0  0  0  0  0  0  0  0  0  0
    2.2509   -8.5936    2.1717 O   0  0  0  0  0  0  0  0  0  0  0  0
    2.4682   -8.5094    0.7616 C   0  0  0  0  0  0  0  0  0  0  0  0
    1.3652   -9.3184    0.0989 C   0  0  0  0  0  0  0  0  0  0  0  0
    1.5430   -9.2962   -1.3098 O   0  0  0  0  0  0  0  0  0  0  0  0
    2.3795   -7.1837    0.2363 C   0  0  0  0  0  0  0  0  0  0  0  0
    2.6362   -7.2094   -1.1601 O   0  0  0  0  0  0  0  0  0  0  0  0
    0.9752   -6.6291    0.4870 C   0  0  0  0  0  0  0  0  0  0  0  0
    0.0187   -7.4214   -0.2012 O   0  0  0  0  0  0  0  0  0  0  0  0
    0.6840   -6.6599    1.9907 C   0  0  0  0  0  0  0  0  0  0  0  0
   -0.6405   -6.2081    2.2317 O   0  0  0  0  0  0  0  0  0  0  0  0
   -0.2252   -7.7703   -1.6995 C   0  0  0  0  0  0  0  0  0  0  0  0
   -0.0049   -9.0317   -2.5183 C   0  0  0  0  0  0  0  0  0  0  0  0
   -1.6751   -7.7082   -1.2475 C   0  0  0  0  0  0  0  0  0  0  0  0
    0.0961   -6.5426   -2.5549 C   0  0  0  0  0  0  0  0  0  0  0  0
    0.7890   -5.5582   -1.7431 C   0  0  0  0  0  0  0  0  0  0  0  0
    0.6017   -4.2665   -2.0582 C   0  0  0  0  0  0  0  0  0  0  0  0
    1.2823   -3.1890   -1.2538 C   0  0  0  0  0  0  0  0  0  0  0  0
    2.0836   -2.1804   -2.0607 C   0  0  0  0  0  0  0  0  0  0  0  0
    0.6843    1.0797   -0.0311 H   0  0  0  0  0  0  0  0  0  0  0  0
    0.6843   -0.4106   -0.9433 H   0  0  0  0  0  0  0  0  0  0  0  0
    2.1110    0.0713   -0.0569 H   0  0  0  0  0  0  0  0  0  0  0  0
   -1.2847   -0.4610    2.2536 H   0  0  0  0  0  0  0  0  0  0  0  0
    0.1420    0.0208    3.1399 H   0  0  0  0  0  0  0  0  0  0  0  0
   -0.4912    1.0496    1.8774 H   0  0  0  0  0  0  0  0  0  0  0  0
    0.5063   -2.5111    2.2075 H   0  0  0  0  0  0  0  0  0  0  0  0
    1.2018   -3.5286   -0.0812 H   0  0  0  0  0  0  0  0  0  0  0  0
    1.9953   -2.0180   -0.4574 H   0  0  0  0  0  0  0  0  0  0  0  0
    3.6186   -3.6956    0.2883 H   0  0  0  0  0  0  0  0  0  0  0  0
    3.5385   -2.3624    1.4149 H   0  0  0  0  0  0  0  0  0  0  0  0
    2.4914   -5.8415    0.8226 H   0  0  0  0  0  0  0  0  0  0  0  0
    1.6178   -6.0189    2.3253 H   0  0  0  0  0  0  0  0  0  0  0  0
    0.9846   -4.9901    1.0629 H   0  0  0  0  0  0  0  0  0  0  0  0
    4.3945   -5.0915    2.0840 H   0  0  0  0  0  0  0  0  0  0  0  0
    2.3690   -2.8167    3.7578 H   0  0  0  0  0  0  0  0  0  0  0  0
   -0.1765   -3.1618    2.2806 H   0  0  0  0  0  0  0  0  0  0  0  0
    0.5120   -1.7166    2.9808 H   0  0  0  0  0  0  0  0  0  0  0  0
    2.2751   -2.5407    0.9363 H   0  0  0  0  0  0  0  0  0  0  0  0
    1.2505   -1.1252    0.9452 H   0  0  0  0  0  0  0  0  0  0  0  0
   -1.7011   -2.5268   -0.2451 H   0  0  0  0  0  0  0  0  0  0  0  0
   -0.7571   -1.6974   -1.4591 H   0  0  0  0  0  0  0  0  0  0  0  0
   -0.9824   -3.4272   -1.5588 H   0  0  0  0  0  0  0  0  0  0  0  0
    0.4495   -4.6595    4.8788 H   0  0  0  0  0  0  0  0  0  0  0  0
    2.4906   -5.5555    5.1759 H   0  0  0  0  0  0  0  0  0  0  0  0
    2.4481   -5.8657    2.3186 H   0  0  0  0  0  0  0  0  0  0  0  0
    1.0000   -7.2613    5.2965 H   0  0  0  0  0  0  0  0  0  0  0  0
    0.2078   -6.7954    3.8103 H   0  0  0  0  0  0  0  0  0  0  0  0
    2.6139   -8.6743    4.0589 H   0  0  0  0  0  0  0  0  0  0  0  0
   -0.6831   -8.5392    3.8470 H   0  0  0  0  0  0  0  0  0  0  0  0
   -0.5091  -10.1254    3.1350 H   0  0  0  0  0  0  0  0  0  0  0  0
    0.5752   -9.6147    4.4064 H   0  0  0  0  0  0  0  0  0  0  0  0
    2.5760   -8.3932    1.1401 H   0  0  0  0  0  0  0  0  0  0  0  0
    2.1357  -10.0729    1.3348 H   0  0  0  0  0  0  0  0  0  0  0  0
    1.3835   -9.5302   -0.7011 H   0  0  0  0  0  0  0  0  0  0  0  0
   -0.1016   -9.3487    0.3493 H   0  0  0  0  0  0  0  0  0  0  0  0
    1.5955   -7.4038   -0.8402 H   0  0  0  0  0  0  0  0  0  0  0  0
   -1.9233   -7.1330    1.4493 H   0  0  0  0  0  0  0  0  0  0  0  0
   -1.2620   -8.4704   -2.4860 H   0  0  0  0  0  0  0  0  0  0  0  0
    0.1997   -6.5842   -1.7479 H   0  0  0  0  0  0  0  0  0  0  0  0
    0.7538   -7.5563   -0.4059 H   0  0  0  0  0  0  0  0  0  0  0  0
    1.5907   -9.0921   -1.9383 H   0  0  0  0  0  0  0  0  0  0  0  0
   -1.4024  -10.3400   -1.0480 H   0  0  0  0  0  0  0  0  0  0  0  0
    1.2410   -9.7214   -1.9911 H   0  0  0  0  0  0  0  0  0  0  0  0
    0.3079  -10.6630    0.6712 H   0  0  0  0  0  0  0  0  0  0  0  0
    1.0871   -7.9850   -0.0153 H   0  0  0  0  0  0  0  0  0  0  0  0
   -1.7932   -9.6150    1.3561 H   0  0  0  0  0  0  0  0  0  0  0  0
    0.8577   -8.2061    3.5649 H   0  0  0  0  0  0  0  0  0  0  0  0
    3.4450   -8.8906    0.5487 H   0  0  0  0  0  0  0  0  0  0  0  0
    1.4055  -10.3292    0.4476 H   0  0  0  0  0  0  0  0  0  0  0  0
    0.4144   -8.8939    0.3451 H   0  0  0  0  0  0  0  0  0  0  0  0
    1.5053   -8.3515   -1.6357 H   0  0  0  0  0  0  0  0  0  0  0  0
    3.1013   -6.5592    0.7199 H   0  0  0  0  0  0  0  0  0  0  0  0
    1.9618   -7.7929   -1.6124 H   0  0  0  0  0  0  0  0  0  0  0  0
    0.9196   -5.6212    0.1321 H   0  0  0  0  0  0  0  0  0  0  0  0
    0.0680   -8.3643    0.1282 H   0  0  0  0  0  0  0  0  0  0  0  0
    1.3722   -6.0201    2.5024 H   0  0  0  0  0  0  0  0  0  0  0  0
   -1.2876   -6.8033    1.7552 H   0  0  0  0  0  0  0  0  0  0  0  0
   -0.2294   -9.8895   -1.9194 H   0  0  0  0  0  0  0  0  0  0  0  0
   -0.6458   -9.0173   -3.3750 H   0  0  0  0  0  0  0  0  0  0  0  0
    1.0155   -9.0764   -2.8370 H   0  0  0  0  0  0  0  0  0  0  0  0
   -1.8312   -6.8209   -0.6703 H   0  0  0  0  0  0  0  0  0  0  0  0
   -2.3156   -7.6934   -2.1046 H   0  0  0  0  0  0  0  0  0  0  0  0
   -1.8994   -8.5667   -0.6495 H   0  0  0  0  0  0  0  0  0  0  0  0
   -0.1164   -6.2844   -3.5713 H   0  0  0  0  0  0  0  0  0  0  0  0
    0.3761   -5.6673   -0.7620 H   0  0  0  0  0  0  0  0  0  0  0  0
    1.8373   -5.7595   -1.8167 H   0  0  0  0  0  0  0  0  0  0  0  0
    1.0579   -4.1794   -3.0221 H   0  0  0  0  0  0  0  0  0  0  0  0
   -0.4503   -4.0821   -1.9939 H   0  0  0  0  0  0  0  0  0  0  0  0
    1.4196   -1.4611   -2.4927 H   0  0  0  0  0  0  0  0  0  0  0  0
    2.7800   -1.6826   -1.4188 H   0  0  0  0  0  0  0  0  0  0  0  0
    2.6151   -2.6875   -2.8386 H   0  0  0  0  0  0  0  0  0  0  0  0
  1  2  1  0  0  0  0
  1 56  1  0  0  0  0
  1 57  1  0  0  0  0
  1 58  1  0  0  0  0
  2  3  1  0  0  0  0
  2  4  2  0  0  0  0
  3 59  1  0  0  0  0
  3 60  1  0  0  0  0
  3 61  1  0  0  0  0
  4  5  1  0  0  0  0
  4 62  1  0  0  0  0
  5  6  1  0  0  0  0
  5 63  1  0  0  0  0
  5 64  1  0  0  0  0
  6  7  1  0  0  0  0
  6 65  1  0  0  0  0
  6 66  1  0  0  0  0
  7  8  1  0  0  0  0
  7  9  1  0  0  0  0
  7 10  1  0  0  0  0
  8 67  1  0  0  0  0
  8 68  1  0  0  0  0
  8 69  1  0  0  0  0
  9 70  1  0  0  0  0
 10 11  1  0  0  0  0
 10 15  1  0  0  0  0
 10 71  1  0  0  0  0
 11 12  1  0  0  0  0
 11 72  1  0  0  0  0
 11 73  1  0  0  0  0
 12 13  1  0  0  0  0
 12 74  1  0  0  0  0
 12 75  1  0  0  0  0
 13 14  1  0  0  0  0
 13 15  1  0  0  0  0
 13 54  1  0  0  0  0
 14 76  1  0  0  0  0
 14 77  1  0  0  0  0
 14 78  1  0  0  0  0
 15 16  1  0  0  0  0
 15 79  1  0  0  0  0
 16 17  1  0  0  0  0
 16 18  1  0  0  0  0
 16 80  1  0  0  0  0
 17 81  1  0  0  0  0
 18 19  1  0  0  0  0
 18 82  1  0  0  0  0
 18 83  1  0  0  0  0
 19 20  1  0  0  0  0
 19 54  1  0  0  0  0
 19 84  1  0  0  0  0
 20 21  1  0  0  0  0
 20 22  1  0  0  0  0
 20 51  1  0  0  0  0
 21 85  1  0  0  0  0
 21 86  1  0  0  0  0
 21 87  1  0  0  0  0
 22 23  1  0  0  0  0
 22 88  1  0  0  0  0
 22 89  1  0  0  0  0
 23 24  1  0  0  0  0
 23 90  1  0  0  0  0
 23 91  1  0  0  0  0
 24 25  1  0  0  0  0
 24 48  1  0  0  0  0
 24 92  1  0  0  0  0
 25 26  1  0  0  0  0
 26 27  1  0  0  0  0
 26 35  1  0  0  0  0
 26 93  1  0  0  0  0
 27 28  1  0  0  0  0
 28 29  1  0  0  0  0
 28 31  1  0  0  0  0
 28 94  1  0  0  0  0
 29 30  1  0  0  0  0
 29 95  1  0  0  0  0
 29 96  1  0  0  0  0
 30 97  1  0  0  0  0
 31 32  1  0  0  0  0
 31 33  1  0  0  0  0
 31 98  1  0  0  0  0
 32 99  1  0  0  0  0
 33 34  1  0  0  0  0
 33 35  1  0  0  0  0
 33100  1  0  0  0  0
 34101  1  0  0  0  0
 35 36  1  0  0  0  0
 35102  1  0  0  0  0
 36 37  1  0  0  0  0
 37 38  1  0  0  0  0
 37 46  1  0  0  0  0
 37103  1  0  0  0  0
 38 39  1  0  0  0  0
 39 40  1  0  0  0  0
 39 42  1  0  0  0  0
 39104  1  0  0  0  0
 40 41  1  0  0  0  0
 40105  1  0  0  0  0
 40106  1  0  0  0  0
 41107  1  0  0  0  0
 42 43  1  0  0  0  0
 42 44  1  0  0  0  0
 42108  1  0  0  0  0
 43109  1  0  0  0  0
 44 45  1  0  0  0  0
 44 46  1  0  0  0  0
 44110  1  0  0  0  0
 45111  1  0  0  0  0
 46 47  1  0  0  0  0
 46112  1  0  0  0  0
 47113  1  0  0  0  0
 48 49  1  0  0  0  0
 48 50  1  0  0  0  0
 48 51  1  0  0  0  0
 49114  1  0  0  0  0
 49115  1  0  0  0  0
 49116  1  0  0  0  0
 50117  1  0  0  0  0
 50118  1  0  0  0  0
 50119  1  0  0  0  0
 51 52  1  0  0  0  0
 51120  1  0  0  0  0
 52 53  1  0  0  0  0
 52121  1  0  0  0  0
 52122  1  0  0  0  0
 53 54  1  0  0  0  0
 53123  1  0  0  0  0
 53124  1  0  0  0  0
 54 55  1  0  0  0  0
 55125  1  0  0  0  0
 55126  1  0  0  0  0
 55127  1  0  0  0  0
M  END
