
 OpenBabel03132514253D

173180  0  0  0  0  0  0  0  0999 V2000
    1.0582   -0.0233   -0.0779 C   0  0  0  0  0  0  0  0  0  0  0  0
    0.5515    1.2617   -0.7125 C   0  0  0  0  0  0  0  0  0  0  0  0
   -0.3224    1.2027   -1.9547 C   0  0  0  0  0  0  0  0  0  0  0  0
    0.8802    2.4645   -0.1685 C   0  0  0  0  0  0  0  0  0  0  0  0
    1.7540    2.5235    1.0738 C   0  0  0  0  0  0  0  0  0  0  0  0
    3.0207    3.3052    0.7655 C   0  0  0  0  0  0  0  0  0  0  0  0
    2.6535    4.7165    0.3369 C   0  0  0  0  0  0  0  0  0  0  0  0
    1.8935    5.4052    1.4587 C   0  0  0  0  0  0  0  0  0  0  0  0
    3.8368    5.4467    0.0489 O   0  0  0  0  0  0  0  0  0  0  0  0
    4.6532    5.5018    1.2095 C   0  0  0  0  0  0  0  0  0  0  0  0
    5.3593    4.1578    1.4031 O   0  0  0  0  0  0  0  0  0  0  0  0
    6.2144    3.9043    0.2863 C   0  0  0  0  0  0  0  0  0  0  0  0
    5.3411    3.9615   -0.9565 C   0  0  0  0  0  0  0  0  0  0  0  0
    6.1321    3.6886   -2.1038 O   0  0  0  0  0  0  0  0  0  0  0  0
    7.1661    4.6565   -2.2069 C   0  0  0  0  0  0  0  0  0  0  0  0
    6.8191    6.1230   -1.8510 O   0  0  0  0  0  0  0  0  0  0  0  0
    8.1930    6.7021   -1.4204 C   0  0  0  0  0  0  0  0  0  0  0  0
    8.0562    7.9600   -0.5782 C   0  0  0  0  0  0  0  0  0  0  0  0
    9.3454    8.4161   -0.1957 O   0  0  0  0  0  0  0  0  0  0  0  0
    8.8672    5.5466   -0.6514 C   0  0  0  0  0  0  0  0  0  0  0  0
    8.6998    5.6977    0.7506 O   0  0  0  0  0  0  0  0  0  0  0  0
    8.2140    4.2461   -1.1516 C   0  0  0  0  0  0  0  0  0  0  0  0
    7.6113    3.5319   -0.0825 O   0  0  0  0  0  0  0  0  0  0  0  0
    7.2466    4.8763    0.1099 C   0  0  0  0  0  0  0  0  0  0  0  0
    8.0499    4.5172   -1.0046 O   0  0  0  0  0  0  0  0  0  0  0  0
    6.6168    6.2494   -0.1360 C   0  0  0  0  0  0  0  0  0  0  0  0
    5.8560    6.2184   -1.3346 O   0  0  0  0  0  0  0  0  0  0  0  0
    5.7057    6.6029    1.0437 C   0  0  0  0  0  0  0  0  0  0  0  0
    5.0645    7.8459    0.7985 O   0  0  0  0  0  0  0  0  0  0  0  0
    1.7796    4.6575   -0.9054 C   0  0  0  0  0  0  0  0  0  0  0  0
    0.5130    3.8758   -0.5972 C   0  0  0  0  0  0  0  0  0  0  0  0
   -0.2470    4.5645    0.5246 C   0  0  0  0  0  0  0  0  0  0  0  0
   -0.6143    5.9758    0.0960 C   0  0  0  0  0  0  0  0  0  0  0  0
   -0.3732    6.1852   -1.3901 C   0  0  0  0  0  0  0  0  0  0  0  0
   -1.8740    5.8127    0.9497 C   0  0  0  0  0  0  0  0  0  0  0  0
   -1.5330    5.9454    2.3312 C   0  0  0  0  0  0  0  0  0  0  0  0
   -0.5318    4.9753    2.6011 O   0  0  0  0  0  0  0  0  0  0  0  0
   -0.9789    7.2165    2.6754 C   0  0  0  0  0  0  0  0  0  0  0  0
    0.3171    7.4365    1.8915 C   0  0  0  0  0  0  0  0  0  0  0  0
    1.3362    6.3781    2.2809 C   0  0  0  0  0  0  0  0  0  0  0  0
    1.5799    6.0989    3.7550 C   0  0  0  0  0  0  0  0  0  0  0  0
    1.1891    4.9187    1.8439 C   0  0  0  0  0  0  0  0  0  0  0  0
    0.6216    4.8694    0.5331 C   0  0  0  0  0  0  0  0  0  0  0  0
    1.4134    5.5091   -0.4695 C   0  0  0  0  0  0  0  0  0  0  0  0
    0.7750    5.3797   -1.7312 O   0  0  0  0  0  0  0  0  0  0  0  0
   -0.5057    5.9907   -1.6785 C   0  0  0  0  0  0  0  0  0  0  0  0
   -1.4133    5.6073   -0.5073 O   0  0  0  0  0  0  0  0  0  0  0  0
   -0.6277    5.4717    0.6788 C   0  0  0  0  0  0  0  0  0  0  0  0
    0.4476    4.4406    0.3771 C   0  0  0  0  0  0  0  0  0  0  0  0
    1.2485    4.2400    1.5324 O   0  0  0  0  0  0  0  0  0  0  0  0
    0.0471    6.6683    1.0712 C   0  0  0  0  0  0  0  0  0  0  0  0
    0.7730    6.4319    2.2685 O   0  0  0  0  0  0  0  0  0  0  0  0
    1.0138    7.0946   -0.0361 C   0  0  0  0  0  0  0  0  0  0  0  0
    2.0027    6.0922   -0.2191 O   0  0  0  0  0  0  0  0  0  0  0  0
    0.2312    7.2903   -1.3384 C   0  0  0  0  0  0  0  0  0  0  0  0
    1.1257    7.6233   -2.3898 O   0  0  0  0  0  0  0  0  0  0  0  0
    2.0691    6.5755   -2.5584 C   0  0  0  0  0  0  0  0  0  0  0  0
    2.7121    6.9150   -1.2117 O   0  0  0  0  0  0  0  0  0  0  0  0
    2.1734    6.0626   -0.1988 C   0  0  0  0  0  0  0  0  0  0  0  0
    0.6657    6.2540   -0.2208 C   0  0  0  0  0  0  0  0  0  0  0  0
    0.0717    5.4498    0.7877 O   0  0  0  0  0  0  0  0  0  0  0  0
    0.2389    4.0399    0.7616 C   0  0  0  0  0  0  0  0  0  0  0  0
    0.9202    3.4978   -0.1643 O   0  0  0  0  0  0  0  0  0  0  0  0
   -0.3969    3.1791    1.8410 C   0  0  0  0  0  0  0  0  0  0  0  0
    0.1461    3.5883    3.2005 C   0  0  0  0  0  0  0  0  0  0  0  0
   -0.6459    4.0110    4.1001 O   0  0  0  0  0  0  0  0  0  0  0  0
    1.5382    3.4981    3.4655 O   0  0  0  0  0  0  0  0  0  0  0  0
    2.4156    4.6717   -0.4180 C   0  0  0  0  0  0  0  0  0  0  0  0
    1.8648    3.9203    0.6537 O   0  0  0  0  0  0  0  0  0  0  0  0
    1.7606    4.2414   -1.7327 C   0  0  0  0  0  0  0  0  0  0  0  0
    0.3542    4.4171   -1.6456 O   0  0  0  0  0  0  0  0  0  0  0  0
    2.3172    5.0970   -2.8749 C   0  0  0  0  0  0  0  0  0  0  0  0
    1.6705    4.7521   -4.0912 O   0  0  0  0  0  0  0  0  0  0  0  0
    1.5696    6.9923   -0.1260 C   0  0  0  0  0  0  0  0  0  0  0  0
    0.2062    7.6643   -0.1293 C   0  0  0  0  0  0  0  0  0  0  0  0
    2.4612    7.6624   -1.1587 C   0  0  0  0  0  0  0  0  0  0  0  0
    2.2051    7.1225    1.2618 C   0  0  0  0  0  0  0  0  0  0  0  0
    2.3029    8.5900    1.6457 C   0  0  0  0  0  0  0  0  0  0  0  0
    1.3105    7.4866   -0.3975 C   0  0  0  0  0  0  0  0  0  0  0  0
    0.0200    7.3389    0.3919 C   0  0  0  0  0  0  0  0  0  0  0  0
   -0.9408    8.4459   -0.0102 C   0  0  0  0  0  0  0  0  0  0  0  0
    0.7015   -0.8624   -0.6379 H   0  0  0  0  0  0  0  0  0  0  0  0
    0.7015   -0.0887    0.9287 H   0  0  0  0  0  0  0  0  0  0  0  0
    2.1282   -0.0233   -0.0779 H   0  0  0  0  0  0  0  0  0  0  0  0
   -1.2675    1.6598   -1.7480 H   0  0  0  0  0  0  0  0  0  0  0  0
    0.1592    1.7252   -2.7547 H   0  0  0  0  0  0  0  0  0  0  0  0
   -0.4740    0.1815   -2.2360 H   0  0  0  0  0  0  0  0  0  0  0  0
    0.5235    3.3690   -0.6152 H   0  0  0  0  0  0  0  0  0  0  0  0
    1.2190    3.0083    1.8635 H   0  0  0  0  0  0  0  0  0  0  0  0
    2.0125    1.5300    1.3755 H   0  0  0  0  0  0  0  0  0  0  0  0
    3.6359    3.3467    1.6400 H   0  0  0  0  0  0  0  0  0  0  0  0
    3.5557    2.8204   -0.0242 H   0  0  0  0  0  0  0  0  0  0  0  0
    2.5087    5.4467    2.3332 H   0  0  0  0  0  0  0  0  0  0  0  0
    1.6350    6.3987    1.1569 H   0  0  0  0  0  0  0  0  0  0  0  0
    1.0018    4.8549    1.6757 H   0  0  0  0  0  0  0  0  0  0  0  0
    4.0417    5.7134    2.0616 H   0  0  0  0  0  0  0  0  0  0  0  0
    6.6736    2.9479    0.4249 H   0  0  0  0  0  0  0  0  0  0  0  0
    4.5620    3.2322   -0.8788 H   0  0  0  0  0  0  0  0  0  0  0  0
    4.9095    4.9366   -1.0446 H   0  0  0  0  0  0  0  0  0  0  0  0
    7.4515    4.6569   -3.2381 H   0  0  0  0  0  0  0  0  0  0  0  0
    8.7734    6.9780   -2.2760 H   0  0  0  0  0  0  0  0  0  0  0  0
    7.5639    8.7195   -1.1488 H   0  0  0  0  0  0  0  0  0  0  0  0
    7.4807    7.7422    0.2972 H   0  0  0  0  0  0  0  0  0  0  0  0
    9.8055    7.7062    0.3376 H   0  0  0  0  0  0  0  0  0  0  0  0
    9.9181    5.5329   -0.8522 H   0  0  0  0  0  0  0  0  0  0  0  0
    7.7243    5.7140    0.9700 H   0  0  0  0  0  0  0  0  0  0  0  0
    8.9515    3.6084   -1.5923 H   0  0  0  0  0  0  0  0  0  0  0  0
    6.9151    4.1045    0.3503 H   0  0  0  0  0  0  0  0  0  0  0  0
    7.8544    4.9150    0.9896 H   0  0  0  0  0  0  0  0  0  0  0  0
    7.4821    4.4810   -1.8269 H   0  0  0  0  0  0  0  0  0  0  0  0
    7.3877    6.9860   -0.2264 H   0  0  0  0  0  0  0  0  0  0  0  0
    5.1344    5.5308   -1.2537 H   0  0  0  0  0  0  0  0  0  0  0  0
    6.2893    6.6787    1.9373 H   0  0  0  0  0  0  0  0  0  0  0  0
    4.5177    7.7800   -0.0361 H   0  0  0  0  0  0  0  0  0  0  0  0
    1.5211    5.6510   -1.2072 H   0  0  0  0  0  0  0  0  0  0  0  0
   -0.1022    3.8343   -1.4717 H   0  0  0  0  0  0  0  0  0  0  0  0
    0.7715    2.8823   -0.2954 H   0  0  0  0  0  0  0  0  0  0  0  0
   -1.1387    4.0143    0.7416 H   0  0  0  0  0  0  0  0  0  0  0  0
    0.3681    4.6061    1.3991 H   0  0  0  0  0  0  0  0  0  0  0  0
    0.6612    6.0221   -1.6101 H   0  0  0  0  0  0  0  0  0  0  0  0
   -0.9698    5.4948   -1.9490 H   0  0  0  0  0  0  0  0  0  0  0  0
   -0.6412    7.1860   -1.6574 H   0  0  0  0  0  0  0  0  0  0  0  0
   -2.2983    4.8455    0.7782 H   0  0  0  0  0  0  0  0  0  0  0  0
   -2.4194    5.7968    2.9119 H   0  0  0  0  0  0  0  0  0  0  0  0
    0.2716    5.1591    2.0348 H   0  0  0  0  0  0  0  0  0  0  0  0
   -0.7702    7.2426    3.7246 H   0  0  0  0  0  0  0  0  0  0  0  0
   -1.6785    7.9885    2.4319 H   0  0  0  0  0  0  0  0  0  0  0  0
    0.7114    8.4055    2.1161 H   0  0  0  0  0  0  0  0  0  0  0  0
    1.9226    6.9915    4.2353 H   0  0  0  0  0  0  0  0  0  0  0  0
    0.6682    5.7753    4.2122 H   0  0  0  0  0  0  0  0  0  0  0  0
    2.3206    5.3331    3.8553 H   0  0  0  0  0  0  0  0  0  0  0  0
    2.1512    4.4504    1.8341 H   0  0  0  0  0  0  0  0  0  0  0  0
    0.5490    4.4038    2.5294 H   0  0  0  0  0  0  0  0  0  0  0  0
   -0.3065    5.4000    0.5785 H   0  0  0  0  0  0  0  0  0  0  0  0
    0.4975    3.8426    0.2590 H   0  0  0  0  0  0  0  0  0  0  0  0
    2.3785    5.0486   -0.5095 H   0  0  0  0  0  0  0  0  0  0  0  0
   -1.1836    5.8470   -2.4939 H   0  0  0  0  0  0  0  0  0  0  0  0
   -1.2740    5.1729    1.4776 H   0  0  0  0  0  0  0  0  0  0  0  0
   -0.0131    3.5162    0.0976 H   0  0  0  0  0  0  0  0  0  0  0  0
    1.0617    4.7904   -0.4262 H   0  0  0  0  0  0  0  0  0  0  0  0
    1.6790    5.1040    1.7937 H   0  0  0  0  0  0  0  0  0  0  0  0
   -0.6704    7.4446    1.2368 H   0  0  0  0  0  0  0  0  0  0  0  0
    1.4436    5.7065    2.1140 H   0  0  0  0  0  0  0  0  0  0  0  0
    1.4890    8.0134    0.2375 H   0  0  0  0  0  0  0  0  0  0  0  0
    1.5619    5.2318   -0.4750 H   0  0  0  0  0  0  0  0  0  0  0  0
   -0.4773    8.0826   -1.2155 H   0  0  0  0  0  0  0  0  0  0  0  0
    2.1797    6.5824   -3.6226 H   0  0  0  0  0  0  0  0  0  0  0  0
    2.6110    6.3363    0.7385 H   0  0  0  0  0  0  0  0  0  0  0  0
    0.4341    7.2827   -0.0391 H   0  0  0  0  0  0  0  0  0  0  0  0
    0.2835    5.9660   -1.1778 H   0  0  0  0  0  0  0  0  0  0  0  0
   -1.4582    3.3139    1.8256 H   0  0  0  0  0  0  0  0  0  0  0  0
   -0.1653    2.1504    1.6593 H   0  0  0  0  0  0  0  0  0  0  0  0
    1.8954    3.7672    4.3599 H   0  0  0  0  0  0  0  0  0  0  0  0
    3.4699    4.4970   -0.4708 H   0  0  0  0  0  0  0  0  0  0  0  0
    0.8794    4.0833    0.7033 H   0  0  0  0  0  0  0  0  0  0  0  0
    1.9765    3.2102   -1.9196 H   0  0  0  0  0  0  0  0  0  0  0  0
    0.1487    5.3800   -1.4709 H   0  0  0  0  0  0  0  0  0  0  0  0
    3.3683    4.9230   -2.9741 H   0  0  0  0  0  0  0  0  0  0  0  0
    0.6875    4.9132   -4.0034 H   0  0  0  0  0  0  0  0  0  0  0  0
    0.3187    8.7005    0.1126 H   0  0  0  0  0  0  0  0  0  0  0  0
   -0.2354    7.5703   -1.0993 H   0  0  0  0  0  0  0  0  0  0  0  0
   -0.4244    7.1951    0.5967 H   0  0  0  0  0  0  0  0  0  0  0  0
    3.4230    7.1936   -1.1575 H   0  0  0  0  0  0  0  0  0  0  0  0
    2.0188    7.5662   -2.1281 H   0  0  0  0  0  0  0  0  0  0  0  0
    2.5695    8.6992   -0.9173 H   0  0  0  0  0  0  0  0  0  0  0  0
    3.1865    6.6965    1.2482 H   0  0  0  0  0  0  0  0  0  0  0  0
    2.9087    9.1061    0.9304 H   0  0  0  0  0  0  0  0  0  0  0  0
    1.3236    9.0208    1.6607 H   0  0  0  0  0  0  0  0  0  0  0  0
    1.7508    8.4386   -0.1864 H   0  0  0  0  0  0  0  0  0  0  0  0
    1.9905    6.7092   -0.1180 H   0  0  0  0  0  0  0  0  0  0  0  0
   -1.8526    8.3442    0.5404 H   0  0  0  0  0  0  0  0  0  0  0  0
   -0.4991    9.3967    0.2037 H   0  0  0  0  0  0  0  0  0  0  0  0
   -1.1471    8.3761   -1.0578 H   0  0  0  0  0  0  0  0  0  0  0  0
  1  2  1  0  0  0  0
  1 82  1  0  0  0  0
  1 83  1  0  0  0  0
  1 84  1  0  0  0  0
  2  3  1  0  0  0  0
  2  4  2  0  0  0  0
  3 85  1  0  0  0  0
  3 86  1  0  0  0  0
  3 87  1  0  0  0  0
  4  5  1  0  0  0  0
  4 88  1  0  0  0  0
  5  6  1  0  0  0  0
  5 89  1  0  0  0  0
  5 90  1  0  0  0  0
  6  7  1  0  0  0  0
  6 91  1  0  0  0  0
  6 92  1  0  0  0  0
  7  8  1  0  0  0  0
  7  9  1  0  0  0  0
  7 30  1  0  0  0  0
  8 93  1  0  0  0  0
  8 94  1  0  0  0  0
  8 95  1  0  0  0  0
  9 10  1  0  0  0  0
 10 11  1  0  0  0  0
 10 28  1  0  0  0  0
 10 96  1  0  0  0  0
 11 12  1  0  0  0  0
 12 13  1  0  0  0  0
 12 24  1  0  0  0  0
 12 97  1  0  0  0  0
 13 14  1  0  0  0  0
 13 98  1  0  0  0  0
 13 99  1  0  0  0  0
 14 15  1  0  0  0  0
 15 16  1  0  0  0  0
 15 22  1  0  0  0  0
 15100  1  0  0  0  0
 16 17  1  0  0  0  0
 17 18  1  0  0  0  0
 17 20  1  0  0  0  0
 17101  1  0  0  0  0
 18 19  1  0  0  0  0
 18102  1  0  0  0  0
 18103  1  0  0  0  0
 19104  1  0  0  0  0
 20 21  1  0  0  0  0
 20 22  1  0  0  0  0
 20105  1  0  0  0  0
 21106  1  0  0  0  0
 22 23  1  0  0  0  0
 22107  1  0  0  0  0
 23108  1  0  0  0  0
 24 25  1  0  0  0  0
 24 26  1  0  0  0  0
 24109  1  0  0  0  0
 25110  1  0  0  0  0
 26 27  1  0  0  0  0
 26 28  1  0  0  0  0
 26111  1  0  0  0  0
 27112  1  0  0  0  0
 28 29  1  0  0  0  0
 28113  1  0  0  0  0
 29114  1  0  0  0  0
 30 31  1  0  0  0  0
 30 35  1  0  0  0  0
 30115  1  0  0  0  0
 31 32  1  0  0  0  0
 31116  1  0  0  0  0
 31117  1  0  0  0  0
 32 33  1  0  0  0  0
 32118  1  0  0  0  0
 32119  1  0  0  0  0
 33 34  1  0  0  0  0
 33 35  1  0  0  0  0
 33 80  1  0  0  0  0
 34120  1  0  0  0  0
 34121  1  0  0  0  0
 34122  1  0  0  0  0
 35 36  1  0  0  0  0
 35123  1  0  0  0  0
 36 37  1  0  0  0  0
 36 38  1  0  0  0  0
 36124  1  0  0  0  0
 37125  1  0  0  0  0
 38 39  1  0  0  0  0
 38126  1  0  0  0  0
 38127  1  0  0  0  0
 39 40  1  0  0  0  0
 39 80  1  0  0  0  0
 39128  1  0  0  0  0
 40 41  1  0  0  0  0
 40 42  1  0  0  0  0
 40 77  1  0  0  0  0
 41129  1  0  0  0  0
 41130  1  0  0  0  0
 41131  1  0  0  0  0
 42 43  1  0  0  0  0
 42132  1  0  0  0  0
 42133  1  0  0  0  0
 43 44  1  0  0  0  0
 43134  1  0  0  0  0
 43135  1  0  0  0  0
 44 45  1  0  0  0  0
 44 74  1  0  0  0  0
 44136  1  0  0  0  0
 45 46  1  0  0  0  0
 46 47  1  0  0  0  0
 46 55  1  0  0  0  0
 46137  1  0  0  0  0
 47 48  1  0  0  0  0
 48 49  1  0  0  0  0
 48 51  1  0  0  0  0
 48138  1  0  0  0  0
 49 50  1  0  0  0  0
 49139  1  0  0  0  0
 49140  1  0  0  0  0
 50141  1  0  0  0  0
 51 52  1  0  0  0  0
 51 53  1  0  0  0  0
 51142  1  0  0  0  0
 52143  1  0  0  0  0
 53 54  1  0  0  0  0
 53 55  1  0  0  0  0
 53144  1  0  0  0  0
 54145  1  0  0  0  0
 55 56  1  0  0  0  0
 55146  1  0  0  0  0
 56 57  1  0  0  0  0
 57 58  1  0  0  0  0
 57 72  1  0  0  0  0
 57147  1  0  0  0  0
 58 59  1  0  0  0  0
 59 60  1  0  0  0  0
 59 68  1  0  0  0  0
 59148  1  0  0  0  0
 60 61  1  0  0  0  0
 60149  1  0  0  0  0
 60150  1  0  0  0  0
 61 62  1  0  0  0  0
 62 63  2  0  0  0  0
 62 64  1  0  0  0  0
 64 65  1  0  0  0  0
 64151  1  0  0  0  0
 64152  1  0  0  0  0
 65 66  2  0  0  0  0
 65 67  1  0  0  0  0
 67153  1  0  0  0  0
 68 69  1  0  0  0  0
 68 70  1  0  0  0  0
 68154  1  0  0  0  0
 69155  1  0  0  0  0
 70 71  1  0  0  0  0
 70 72  1  0  0  0  0
 70156  1  0  0  0  0
 71157  1  0  0  0  0
 72 73  1  0  0  0  0
 72158  1  0  0  0  0
 73159  1  0  0  0  0
 74 75  1  0  0  0  0
 74 76  1  0  0  0  0
 74 77  1  0  0  0  0
 75160  1  0  0  0  0
 75161  1  0  0  0  0
 75162  1  0  0  0  0
 76163  1  0  0  0  0
 76164  1  0  0  0  0
 76165  1  0  0  0  0
 77 78  1  0  0  0  0
 77166  1  0  0  0  0
 78 79  1  0  0  0  0
 78167  1  0  0  0  0
 78168  1  0  0  0  0
 79 80  1  0  0  0  0
 79169  1  0  0  0  0
 79170  1  0  0  0  0
 80 81  1  0  0  0  0
 81171  1  0  0  0  0
 81172  1  0  0  0  0
 81173  1  0  0  0  0
M  END
