
 OpenBabel03132512093D

 57 60  0  0  0  0  0  0  0  0999 V2000
    1.0610   -0.0771    0.0183 C   0  0  0  0  0  0  0  0  0  0  0  0
    0.5877    1.2333   -0.2563 O   0  0  0  0  0  0  0  0  0  0  0  0
    0.9307    2.3075    0.6068 C   0  0  0  0  0  0  0  0  0  0  0  0
    0.0342    3.3400    0.9076 C   0  0  0  0  0  0  0  0  0  0  0  0
    0.5083    4.4505    1.6229 C   0  0  0  0  0  0  0  0  0  0  0  0
   -0.0431    5.5870    2.0733 N   0  0  0  0  0  0  0  0  0  0  0  0
    0.8906    6.2811    2.6939 C   0  0  0  0  0  0  0  0  0  0  0  0
    2.0477    5.6335    2.6598 N   0  0  0  0  0  0  0  0  0  0  0  0
    3.3119    6.1079    3.2410 C   0  0  0  0  0  0  0  0  0  0  0  0
    4.4599    6.3357    2.5578 C   0  0  0  0  0  0  0  0  0  0  0  0
    5.3525    6.7908    3.4704 C   0  0  0  0  0  0  0  0  0  0  0  0
    6.6972    7.1690    3.2154 O   0  0  0  0  0  0  0  0  0  0  0  0
    7.2205    7.0861    1.8980 C   0  0  0  0  0  0  0  0  0  0  0  0
    7.1451    5.6477    1.4124 C   0  0  0  0  0  0  0  0  0  0  0  0
    6.0816    4.7789    1.7843 C   0  0  0  0  0  0  0  0  0  0  0  0
    6.2189    3.3959    1.5820 C   0  0  0  0  0  0  0  0  0  0  0  0
    7.1722    2.9407    0.8233 C   0  0  0  0  0  0  0  0  0  0  0  0
    8.0570    3.8292    0.1979 C   0  0  0  0  0  0  0  0  0  0  0  0
    8.1173    5.1766    0.6296 C   0  0  0  0  0  0  0  0  0  0  0  0
    9.2712    6.0717    0.2079 C   0  0  0  0  0  0  0  0  0  0  0  0
   10.4166    5.5513    0.6395 F   0  0  0  0  0  0  0  0  0  0  0  0
    9.2983    6.1646   -1.1185 F   0  0  0  0  0  0  0  0  0  0  0  0
    9.1082    7.2824    0.7339 F   0  0  0  0  0  0  0  0  0  0  0  0
    4.7480    6.8175    4.6267 C   0  0  0  0  0  0  0  0  0  0  0  0
    5.3798    7.2649    5.9348 C   0  0  0  0  0  0  0  0  0  0  0  0
    6.5899    7.6527    5.9561 O   0  0  0  0  0  0  0  0  0  0  0  0
    4.5911    7.2491    7.1752 N   0  0  0  0  0  0  0  0  0  0  0  0
    3.1914    6.8005    7.1505 C   0  0  0  0  0  0  0  0  0  0  0  0
    5.2021    7.6817    8.4403 C   0  0  0  0  0  0  0  0  0  0  0  0
    3.5366    6.4078    4.4911 S   0  0  0  0  0  0  0  0  0  0  0  0
    1.8756    4.4852    2.0136 C   0  0  0  0  0  0  0  0  0  0  0  0
    2.6947    3.4465    1.6897 C   0  0  0  0  0  0  0  0  0  0  0  0
    2.2319    2.3900    1.0048 C   0  0  0  0  0  0  0  0  0  0  0  0
    3.1208    1.3296    0.6860 O   0  0  0  0  0  0  0  0  0  0  0  0
    2.6506    0.2024   -0.0384 C   0  0  0  0  0  0  0  0  0  0  0  0
    0.7044   -0.7499   -0.7333 H   0  0  0  0  0  0  0  0  0  0  0  0
    0.7044   -0.3916    0.9769 H   0  0  0  0  0  0  0  0  0  0  0  0
    2.1310   -0.0771    0.0183 H   0  0  0  0  0  0  0  0  0  0  0  0
   -0.9888    3.2837    0.5992 H   0  0  0  0  0  0  0  0  0  0  0  0
    0.7366    7.2322    3.1592 H   0  0  0  0  0  0  0  0  0  0  0  0
    4.6274    6.1866    1.5116 H   0  0  0  0  0  0  0  0  0  0  0  0
    6.6478    7.7129    1.2467 H   0  0  0  0  0  0  0  0  0  0  0  0
    8.2404    7.4095    1.8983 H   0  0  0  0  0  0  0  0  0  0  0  0
    5.1855    5.1755    2.2140 H   0  0  0  0  0  0  0  0  0  0  0  0
    5.5391    2.7165    2.0523 H   0  0  0  0  0  0  0  0  0  0  0  0
    7.2809    1.8865    0.6764 H   0  0  0  0  0  0  0  0  0  0  0  0
    8.6835    3.4916   -0.6011 H   0  0  0  0  0  0  0  0  0  0  0  0
    3.0765    5.9547    7.7957 H   0  0  0  0  0  0  0  0  0  0  0  0
    2.5567    7.5939    7.4861 H   0  0  0  0  0  0  0  0  0  0  0  0
    2.9222    6.5266    6.1519 H   0  0  0  0  0  0  0  0  0  0  0  0
    6.0437    7.0591    8.6612 H   0  0  0  0  0  0  0  0  0  0  0  0
    5.5239    8.6983    8.3516 H   0  0  0  0  0  0  0  0  0  0  0  0
    4.4832    7.6027    9.2289 H   0  0  0  0  0  0  0  0  0  0  0  0
    3.7226    3.4736    1.9859 H   0  0  0  0  0  0  0  0  0  0  0  0
    1.8669   -0.2741    0.5127 H   0  0  0  0  0  0  0  0  0  0  0  0
    2.2759    0.5202   -0.9889 H   0  0  0  0  0  0  0  0  0  0  0  0
    3.4546   -0.4882   -0.1848 H   0  0  0  0  0  0  0  0  0  0  0  0
  1  2  1  0  0  0  0
  1 36  1  0  0  0  0
  1 37  1  0  0  0  0
  1 38  1  0  0  0  0
  2  3  1  0  0  0  0
  3  4  1  0  0  0  0
  3 33  2  0  0  0  0
  4  5  2  0  0  0  0
  4 39  1  0  0  0  0
  5  6  1  0  0  0  0
  5 31  1  0  0  0  0
  6  7  2  0  0  0  0
  7  8  1  0  0  0  0
  7 40  1  0  0  0  0
  8  9  1  0  0  0  0
  8 31  1  0  0  0  0
  9 10  2  0  0  0  0
  9 30  1  0  0  0  0
 10 11  1  0  0  0  0
 10 41  1  0  0  0  0
 11 12  1  0  0  0  0
 11 24  2  0  0  0  0
 12 13  1  0  0  0  0
 13 14  1  0  0  0  0
 13 42  1  0  0  0  0
 13 43  1  0  0  0  0
 14 15  1  0  0  0  0
 14 19  2  0  0  0  0
 15 16  2  0  0  0  0
 15 44  1  0  0  0  0
 16 17  1  0  0  0  0
 16 45  1  0  0  0  0
 17 18  2  0  0  0  0
 17 46  1  0  0  0  0
 18 19  1  0  0  0  0
 18 47  1  0  0  0  0
 19 20  1  0  0  0  0
 20 21  1  0  0  0  0
 20 22  1  0  0  0  0
 20 23  1  0  0  0  0
 24 25  1  0  0  0  0
 24 30  1  0  0  0  0
 25 26  2  0  0  0  0
 25 27  1  0  0  0  0
 27 28  1  0  0  0  0
 27 29  1  0  0  0  0
 28 48  1  0  0  0  0
 28 49  1  0  0  0  0
 28 50  1  0  0  0  0
 29 51  1  0  0  0  0
 29 52  1  0  0  0  0
 29 53  1  0  0  0  0
 31 32  2  0  0  0  0
 32 33  1  0  0  0  0
 32 54  1  0  0  0  0
 33 34  1  0  0  0  0
 34 35  1  0  0  0  0
 35 55  1  0  0  0  0
 35 56  1  0  0  0  0
 35 57  1  0  0  0  0
M  END
