
 OpenBabel03132512093D

 40 43  0  0  0  0  0  0  0  0999 V2000
    1.0900   -0.0128    0.0415 N   0  0  0  0  0  0  0  0  0  0  0  0
    0.3550   -0.8192   -0.9435 C   0  0  0  0  0  0  0  0  0  0  0  0
   -0.9159   -0.8192   -0.9435 O   0  0  0  0  0  0  0  0  0  0  0  0
    1.1150   -1.6531   -1.9621 C   0  0  0  0  0  0  0  0  0  0  0  0
    0.7827   -1.5210   -3.6473 S   0  0  0  0  0  0  0  0  0  0  0  0
    2.1165   -2.5418   -4.0199 C   0  0  0  0  0  0  0  0  0  0  0  0
    2.5094   -2.9114   -5.3874 N   0  0  0  0  0  0  0  0  0  0  0  0
    2.7713   -2.0830   -6.3778 C   0  0  0  0  0  0  0  0  0  0  0  0
    2.9919   -2.7547   -7.4984 N   0  0  0  0  0  0  0  0  0  0  0  0
    2.8751   -4.0572   -7.2445 C   0  0  0  0  0  0  0  0  0  0  0  0
    2.9929   -5.2367   -8.0093 C   0  0  0  0  0  0  0  0  0  0  0  0
    2.8049   -6.4342   -7.4133 C   0  0  0  0  0  0  0  0  0  0  0  0
    2.4974   -6.5315   -6.0931 C   0  0  0  0  0  0  0  0  0  0  0  0
    2.3767   -5.4365   -5.3098 C   0  0  0  0  0  0  0  0  0  0  0  0
    2.5590   -4.1668   -5.8612 C   0  0  0  0  0  0  0  0  0  0  0  0
    2.7654   -2.9673   -2.9026 C   0  0  0  0  0  0  0  0  0  0  0  0
    2.2018   -2.4627   -1.7258 C   0  0  0  0  0  0  0  0  0  0  0  0
    2.6979   -2.7546   -0.4277 O   0  0  0  0  0  0  0  0  0  0  0  0
    2.0648   -2.1995    0.7158 C   0  0  0  0  0  0  0  0  0  0  0  0
    2.1149   -0.6824    0.6362 C   0  0  0  0  0  0  0  0  0  0  0  0
    3.0179    0.0328    1.4713 C   0  0  0  0  0  0  0  0  0  0  0  0
    2.8812    1.4245    1.6009 C   0  0  0  0  0  0  0  0  0  0  0  0
    2.1295    2.0848    0.7700 C   0  0  0  0  0  0  0  0  0  0  0  0
    1.4632    1.4108   -0.2621 C   0  0  0  0  0  0  0  0  0  0  0  0
    1.3502   -0.0001   -0.2179 C   0  0  0  0  0  0  0  0  0  0  0  0
    0.0903   -0.9354   -1.3925 Br  0  0  0  0  0  0  0  0  0  0  0  0
    0.5800    0.5467    0.7251 H   0  0  0  0  0  0  0  0  0  0  0  0
    2.1100   -0.0128    0.0415 H   0  0  0  0  0  0  0  0  0  0  0  0
    2.8016   -1.0171   -6.2896 H   0  0  0  0  0  0  0  0  0  0  0  0
    3.2289   -5.1832   -9.0515 H   0  0  0  0  0  0  0  0  0  0  0  0
    2.9003   -7.3275   -7.9946 H   0  0  0  0  0  0  0  0  0  0  0  0
    2.3471   -7.4995   -5.6628 H   0  0  0  0  0  0  0  0  0  0  0  0
    2.1423   -5.5423   -4.2712 H   0  0  0  0  0  0  0  0  0  0  0  0
    3.6150   -3.6175   -2.9217 H   0  0  0  0  0  0  0  0  0  0  0  0
    1.0450   -2.5214    0.7504 H   0  0  0  0  0  0  0  0  0  0  0  0
    2.5724   -2.5273    1.5989 H   0  0  0  0  0  0  0  0  0  0  0  0
    3.7938   -0.4849    1.9956 H   0  0  0  0  0  0  0  0  0  0  0  0
    3.3958    1.9418    2.3836 H   0  0  0  0  0  0  0  0  0  0  0  0
    2.0196    3.1440    0.8747 H   0  0  0  0  0  0  0  0  0  0  0  0
    1.0423    1.9591   -1.0790 H   0  0  0  0  0  0  0  0  0  0  0  0
  1  2  1  0  0  0  0
  1 27  1  0  0  0  0
  1 28  1  0  0  0  0
  2  3  2  0  0  0  0
  2  4  1  0  0  0  0
  4  5  1  0  0  0  0
  4 17  2  0  0  0  0
  5  6  1  0  0  0  0
  6  7  1  0  0  0  0
  6 16  2  0  0  0  0
  7  8  1  0  0  0  0
  7 15  1  0  0  0  0
  8  9  2  0  0  0  0
  8 29  1  0  0  0  0
  9 10  1  0  0  0  0
 10 11  1  0  0  0  0
 10 15  2  0  0  0  0
 11 12  2  0  0  0  0
 11 30  1  0  0  0  0
 12 13  1  0  0  0  0
 12 31  1  0  0  0  0
 13 14  2  0  0  0  0
 13 32  1  0  0  0  0
 14 15  1  0  0  0  0
 14 33  1  0  0  0  0
 16 17  1  0  0  0  0
 16 34  1  0  0  0  0
 17 18  1  0  0  0  0
 18 19  1  0  0  0  0
 19 20  1  0  0  0  0
 19 35  1  0  0  0  0
 19 36  1  0  0  0  0
 20 21  1  0  0  0  0
 20 25  2  0  0  0  0
 21 22  2  0  0  0  0
 21 37  1  0  0  0  0
 22 23  1  0  0  0  0
 22 38  1  0  0  0  0
 23 24  2  0  0  0  0
 23 39  1  0  0  0  0
 24 25  1  0  0  0  0
 24 40  1  0  0  0  0
 25 26  1  0  0  0  0
M  END
