
 OpenBabel03132514253D

 57 60  0  0  0  0  0  0  0  0999 V2000
    1.0594    0.0502    0.0628 C   0  0  0  0  0  0  0  0  0  0  0  0
    0.5861   -1.2093    0.5167 O   0  0  0  0  0  0  0  0  0  0  0  0
    0.9291   -2.3929   -0.1888 C   0  0  0  0  0  0  0  0  0  0  0  0
   -0.1278   -3.2322   -0.5616 C   0  0  0  0  0  0  0  0  0  0  0  0
    0.1505   -4.3315   -1.3884 C   0  0  0  0  0  0  0  0  0  0  0  0
   -0.5845   -5.3148   -1.9284 N   0  0  0  0  0  0  0  0  0  0  0  0
    0.2165   -6.0890   -2.6339 C   0  0  0  0  0  0  0  0  0  0  0  0
    1.4646   -5.6447   -2.5688 N   0  0  0  0  0  0  0  0  0  0  0  0
    2.6280   -6.2608   -3.2230 C   0  0  0  0  0  0  0  0  0  0  0  0
    3.7459   -6.7480   -2.6318 C   0  0  0  0  0  0  0  0  0  0  0  0
    4.5412   -7.1823   -3.6395 C   0  0  0  0  0  0  0  0  0  0  0  0
    5.8219   -7.7801   -3.5023 O   0  0  0  0  0  0  0  0  0  0  0  0
    6.3819   -7.9704   -2.2113 C   0  0  0  0  0  0  0  0  0  0  0  0
    6.5285   -6.6250   -1.5193 C   0  0  0  0  0  0  0  0  0  0  0  0
    5.4883   -5.6739   -1.7131 C   0  0  0  0  0  0  0  0  0  0  0  0
    5.6891   -4.3424   -1.3141 C   0  0  0  0  0  0  0  0  0  0  0  0
    6.6871   -4.0393   -0.5371 C   0  0  0  0  0  0  0  0  0  0  0  0
    7.5573   -5.0416   -0.0882 C   0  0  0  0  0  0  0  0  0  0  0  0
    7.5470   -6.3105   -0.7170 C   0  0  0  0  0  0  0  0  0  0  0  0
    8.6781   -7.2982   -0.4817 C   0  0  0  0  0  0  0  0  0  0  0  0
    9.8272   -6.7591   -0.8791 F   0  0  0  0  0  0  0  0  0  0  0  0
    8.7499   -7.5895    0.8141 F   0  0  0  0  0  0  0  0  0  0  0  0
    8.4471   -8.4100   -1.1739 F   0  0  0  0  0  0  0  0  0  0  0  0
    3.9127   -6.9498   -4.7594 C   0  0  0  0  0  0  0  0  0  0  0  0
    4.4420   -7.2804   -6.1454 C   0  0  0  0  0  0  0  0  0  0  0  0
    5.5818   -7.8273   -6.2766 O   0  0  0  0  0  0  0  0  0  0  0  0
    3.6357   -6.9677   -7.3341 N   0  0  0  0  0  0  0  0  0  0  0  0
    2.3174   -6.3352   -7.1823 C   0  0  0  0  0  0  0  0  0  0  0  0
    4.1476   -7.2875   -8.6744 C   0  0  0  0  0  0  0  0  0  0  0  0
    2.7776   -6.3984   -4.5121 S   0  0  0  0  0  0  0  0  0  0  0  0
    1.4898   -4.5508   -1.8148 C   0  0  0  0  0  0  0  0  0  0  0  0
    2.4715   -3.6951   -1.4165 C   0  0  0  0  0  0  0  0  0  0  0  0
    2.1951   -2.6477   -0.6252 C   0  0  0  0  0  0  0  0  0  0  0  0
    3.2493   -1.7816   -0.2317 O   0  0  0  0  0  0  0  0  0  0  0  0
    2.9777   -0.6673    0.6055 C   0  0  0  0  0  0  0  0  0  0  0  0
    0.7027    0.8209    0.7138 H   0  0  0  0  0  0  0  0  0  0  0  0
    0.7027    0.2286   -0.9301 H   0  0  0  0  0  0  0  0  0  0  0  0
    2.1294    0.0502    0.0628 H   0  0  0  0  0  0  0  0  0  0  0  0
   -1.1247   -3.0399   -0.2239 H   0  0  0  0  0  0  0  0  0  0  0  0
   -0.0962   -6.9535   -3.1814 H   0  0  0  0  0  0  0  0  0  0  0  0
    3.9575   -6.7826   -1.5835 H   0  0  0  0  0  0  0  0  0  0  0  0
    5.7391   -8.6007   -1.6330 H   0  0  0  0  0  0  0  0  0  0  0  0
    7.3434   -8.4305   -2.3039 H   0  0  0  0  0  0  0  0  0  0  0  0
    4.5618   -5.9703   -2.1588 H   0  0  0  0  0  0  0  0  0  0  0  0
    5.0207   -3.5770   -1.6494 H   0  0  0  0  0  0  0  0  0  0  0  0
    6.8438   -3.0233   -0.2403 H   0  0  0  0  0  0  0  0  0  0  0  0
    8.2257   -4.8494    0.7249 H   0  0  0  0  0  0  0  0  0  0  0  0
    2.3123   -5.3945   -7.6921 H   0  0  0  0  0  0  0  0  0  0  0  0
    1.5661   -6.9718   -7.6009 H   0  0  0  0  0  0  0  0  0  0  0  0
    2.1142   -6.1790   -6.1435 H   0  0  0  0  0  0  0  0  0  0  0  0
    5.0658   -6.7637   -8.8399 H   0  0  0  0  0  0  0  0  0  0  0  0
    4.3195   -8.3409   -8.7486 H   0  0  0  0  0  0  0  0  0  0  0  0
    3.4300   -6.9905   -9.4105 H   0  0  0  0  0  0  0  0  0  0  0  0
    3.4781   -3.8606   -1.7395 H   0  0  0  0  0  0  0  0  0  0  0  0
    2.2778   -0.0191    0.1208 H   0  0  0  0  0  0  0  0  0  0  0  0
    2.5648   -1.0093    1.5316 H   0  0  0  0  0  0  0  0  0  0  0  0
    3.8856   -0.1339    0.7952 H   0  0  0  0  0  0  0  0  0  0  0  0
  1  2  1  0  0  0  0
  1 36  1  0  0  0  0
  1 37  1  0  0  0  0
  1 38  1  0  0  0  0
  2  3  1  0  0  0  0
  3  4  1  0  0  0  0
  3 33  2  0  0  0  0
  4  5  2  0  0  0  0
  4 39  1  0  0  0  0
  5  6  1  0  0  0  0
  5 31  1  0  0  0  0
  6  7  2  0  0  0  0
  7  8  1  0  0  0  0
  7 40  1  0  0  0  0
  8  9  1  0  0  0  0
  8 31  1  0  0  0  0
  9 10  2  0  0  0  0
  9 30  1  0  0  0  0
 10 11  1  0  0  0  0
 10 41  1  0  0  0  0
 11 12  1  0  0  0  0
 11 24  2  0  0  0  0
 12 13  1  0  0  0  0
 13 14  1  0  0  0  0
 13 42  1  0  0  0  0
 13 43  1  0  0  0  0
 14 15  1  0  0  0  0
 14 19  2  0  0  0  0
 15 16  2  0  0  0  0
 15 44  1  0  0  0  0
 16 17  1  0  0  0  0
 16 45  1  0  0  0  0
 17 18  2  0  0  0  0
 17 46  1  0  0  0  0
 18 19  1  0  0  0  0
 18 47  1  0  0  0  0
 19 20  1  0  0  0  0
 20 21  1  0  0  0  0
 20 22  1  0  0  0  0
 20 23  1  0  0  0  0
 24 25  1  0  0  0  0
 24 30  1  0  0  0  0
 25 26  2  0  0  0  0
 25 27  1  0  0  0  0
 27 28  1  0  0  0  0
 27 29  1  0  0  0  0
 28 48  1  0  0  0  0
 28 49  1  0  0  0  0
 28 50  1  0  0  0  0
 29 51  1  0  0  0  0
 29 52  1  0  0  0  0
 29 53  1  0  0  0  0
 31 32  2  0  0  0  0
 32 33  1  0  0  0  0
 32 54  1  0  0  0  0
 33 34  1  0  0  0  0
 34 35  1  0  0  0  0
 35 55  1  0  0  0  0
 35 56  1  0  0  0  0
 35 57  1  0  0  0  0
M  END
