
 OpenBabel03132512093D

 47 50  0  0  0  0  0  0  0  0999 V2000
    1.0777    0.0323   -0.0540 C   0  0  0  0  0  0  0  0  0  0  0  0
    0.6044    0.9434   -1.0349 O   0  0  0  0  0  0  0  0  0  0  0  0
    0.9474    2.3188   -0.9508 C   0  0  0  0  0  0  0  0  0  0  0  0
    2.2345    2.6579   -0.6762 C   0  0  0  0  0  0  0  0  0  0  0  0
    2.6270    3.9490   -0.5972 C   0  0  0  0  0  0  0  0  0  0  0  0
    1.6939    4.9697   -0.7895 C   0  0  0  0  0  0  0  0  0  0  0  0
    1.7406    6.3116   -0.7766 N   0  0  0  0  0  0  0  0  0  0  0  0
    0.5320    6.7716   -1.0284 C   0  0  0  0  0  0  0  0  0  0  0  0
   -0.3176    5.7707   -1.2065 N   0  0  0  0  0  0  0  0  0  0  0  0
   -1.7509    5.9055   -1.5039 C   0  0  0  0  0  0  0  0  0  0  0  0
   -2.2928    6.5242   -2.5809 C   0  0  0  0  0  0  0  0  0  0  0  0
   -3.6354    6.3965   -2.4475 C   0  0  0  0  0  0  0  0  0  0  0  0
   -4.6201    6.8863   -3.3457 O   0  0  0  0  0  0  0  0  0  0  0  0
   -4.2274    7.5869   -4.5168 C   0  0  0  0  0  0  0  0  0  0  0  0
   -3.4386    8.8258   -4.1254 C   0  0  0  0  0  0  0  0  0  0  0  0
   -3.3595    6.6853   -5.3795 C   0  0  0  0  0  0  0  0  0  0  0  0
   -2.4234    7.1799   -6.3299 C   0  0  0  0  0  0  0  0  0  0  0  0
   -1.9671    6.3326   -7.3528 C   0  0  0  0  0  0  0  0  0  0  0  0
   -2.1759    5.0510   -7.2779 C   0  0  0  0  0  0  0  0  0  0  0  0
   -2.8466    4.5122   -6.1719 C   0  0  0  0  0  0  0  0  0  0  0  0
   -3.5655    5.3693   -5.3036 C   0  0  0  0  0  0  0  0  0  0  0  0
   -4.7253    4.7018   -4.1299 Cl  0  0  0  0  0  0  0  0  0  0  0  0
   -3.8562    5.7402   -1.3413 C   0  0  0  0  0  0  0  0  0  0  0  0
   -5.2283    5.3724   -0.8005 C   0  0  0  0  0  0  0  0  0  0  0  0
   -6.4380    5.7607   -1.5398 N   0  0  0  0  0  0  0  0  0  0  0  0
   -5.3296    4.7293    0.2910 O   0  0  0  0  0  0  0  0  0  0  0  0
   -2.7364    5.4520   -0.7784 S   0  0  0  0  0  0  0  0  0  0  0  0
    0.3431    4.6218   -1.0713 C   0  0  0  0  0  0  0  0  0  0  0  0
   -0.0047    3.2567   -1.1462 C   0  0  0  0  0  0  0  0  0  0  0  0
    0.7210   -0.9511   -0.2790 H   0  0  0  0  0  0  0  0  0  0  0  0
    0.7210    0.3292    0.9101 H   0  0  0  0  0  0  0  0  0  0  0  0
    2.1477    0.0323   -0.0540 H   0  0  0  0  0  0  0  0  0  0  0  0
    2.9555    1.8832   -0.5185 H   0  0  0  0  0  0  0  0  0  0  0  0
    3.6488    4.1879   -0.3881 H   0  0  0  0  0  0  0  0  0  0  0  0
    0.2729    7.8084   -1.0816 H   0  0  0  0  0  0  0  0  0  0  0  0
   -1.7679    7.0137   -3.3745 H   0  0  0  0  0  0  0  0  0  0  0  0
   -5.0977    7.8773   -5.0674 H   0  0  0  0  0  0  0  0  0  0  0  0
   -2.5683    8.5354   -3.5748 H   0  0  0  0  0  0  0  0  0  0  0  0
   -3.1427    9.3537   -5.0078 H   0  0  0  0  0  0  0  0  0  0  0  0
   -4.0496    9.4605   -3.5181 H   0  0  0  0  0  0  0  0  0  0  0  0
   -2.0703    8.1879   -6.2659 H   0  0  0  0  0  0  0  0  0  0  0  0
   -1.4476    6.7415   -8.1941 H   0  0  0  0  0  0  0  0  0  0  0  0
   -1.8350    4.4074   -8.0617 H   0  0  0  0  0  0  0  0  0  0  0  0
   -2.8159    3.4591   -5.9845 H   0  0  0  0  0  0  0  0  0  0  0  0
   -7.3588    5.5139   -1.1769 H   0  0  0  0  0  0  0  0  0  0  0  0
   -6.3567    6.2769   -2.4158 H   0  0  0  0  0  0  0  0  0  0  0  0
   -1.0132    2.9671   -1.3558 H   0  0  0  0  0  0  0  0  0  0  0  0
  1  2  1  0  0  0  0
  1 30  1  0  0  0  0
  1 31  1  0  0  0  0
  1 32  1  0  0  0  0
  2  3  1  0  0  0  0
  3  4  1  0  0  0  0
  3 29  2  0  0  0  0
  4  5  2  0  0  0  0
  4 33  1  0  0  0  0
  5  6  1  0  0  0  0
  5 34  1  0  0  0  0
  6  7  1  0  0  0  0
  6 28  2  0  0  0  0
  7  8  2  0  0  0  0
  8  9  1  0  0  0  0
  8 35  1  0  0  0  0
  9 10  1  0  0  0  0
  9 28  1  0  0  0  0
 10 11  2  0  0  0  0
 10 27  1  0  0  0  0
 11 12  1  0  0  0  0
 11 36  1  0  0  0  0
 12 13  1  0  0  0  0
 12 23  2  0  0  0  0
 13 14  1  0  0  0  0
 14 15  1  0  0  0  0
 14 16  1  0  0  0  0
 14 37  1  0  0  0  0
 15 38  1  0  0  0  0
 15 39  1  0  0  0  0
 15 40  1  0  0  0  0
 16 17  1  0  0  0  0
 16 21  2  0  0  0  0
 17 18  2  0  0  0  0
 17 41  1  0  0  0  0
 18 19  1  0  0  0  0
 18 42  1  0  0  0  0
 19 20  2  0  0  0  0
 19 43  1  0  0  0  0
 20 21  1  0  0  0  0
 20 44  1  0  0  0  0
 21 22  1  0  0  0  0
 23 24  1  0  0  0  0
 23 27  1  0  0  0  0
 24 25  1  0  0  0  0
 24 26  2  0  0  0  0
 25 45  1  0  0  0  0
 25 46  1  0  0  0  0
 28 29  1  0  0  0  0
 29 47  1  0  0  0  0
M  END
