
 OpenBabel03132512093D

 46 48  0  0  0  0  0  0  0  0999 V2000
    1.0457    0.0858    0.0234 C   0  0  0  0  0  0  0  0  0  0  0  0
    0.5391   -1.2850    0.4413 C   0  0  0  0  0  0  0  0  0  0  0  0
    1.0290   -1.5978    1.7914 N   0  0  0  0  0  0  0  0  0  0  0  0
    1.4477   -0.7298    2.6897 C   0  0  0  0  0  0  0  0  0  0  0  0
    1.5647    0.7679    2.4586 C   0  0  0  0  0  0  0  0  0  0  0  0
    3.0080    1.7999    2.6437 N   0  0  0  0  0  0  0  0  0  0  0  0
    2.2806    3.3328    2.2873 O   0  0  0  0  0  0  0  0  0  0  0  0
    0.9815    3.0111    2.0435 N   0  0  0  0  0  0  0  0  0  0  0  0
    0.5911    1.6978    2.1198 C   0  0  0  0  0  0  0  0  0  0  0  0
   -0.7970    1.2932    1.8543 N   0  0  0  0  0  0  0  0  0  0  0  0
    1.7525   -1.3453    3.8228 N   0  0  0  0  0  0  0  0  0  0  0  0
    1.5292   -2.6500    3.6725 C   0  0  0  0  0  0  0  0  0  0  0  0
    1.6606   -3.7858    4.4987 C   0  0  0  0  0  0  0  0  0  0  0  0
    2.1657   -3.6426    5.9251 C   0  0  0  0  0  0  0  0  0  0  0  0
    2.5990   -3.5198    7.1487 C   0  0  0  0  0  0  0  0  0  0  0  0
    3.1041   -3.3767    8.5752 C   0  0  0  0  0  0  0  0  0  0  0  0
    3.9836   -2.2024    8.6680 N   0  0  0  0  0  0  0  0  0  0  0  0
    1.3332   -5.0018    4.0102 N   0  0  0  0  0  0  0  0  0  0  0  0
    0.8856   -5.1600    2.7367 C   0  0  0  0  0  0  0  0  0  0  0  0
    0.7349   -4.1081    1.9014 C   0  0  0  0  0  0  0  0  0  0  0  0
    0.2537   -4.3099    0.5807 O   0  0  0  0  0  0  0  0  0  0  0  0
   -0.0702   -5.6187    0.1353 C   0  0  0  0  0  0  0  0  0  0  0  0
    1.1649   -6.5012    0.2150 C   0  0  0  0  0  0  0  0  0  0  0  0
    1.6525   -6.5616    1.6534 C   0  0  0  0  0  0  0  0  0  0  0  0
    0.5943   -7.1216    2.5063 N   0  0  0  0  0  0  0  0  0  0  0  0
    1.0542   -2.8223    2.3421 C   0  0  0  0  0  0  0  0  0  0  0  0
    0.6891    0.8231    0.7120 H   0  0  0  0  0  0  0  0  0  0  0  0
    0.6891    0.3135   -0.9594 H   0  0  0  0  0  0  0  0  0  0  0  0
    2.1157    0.0858    0.0234 H   0  0  0  0  0  0  0  0  0  0  0  0
   -0.5309   -1.2850    0.4413 H   0  0  0  0  0  0  0  0  0  0  0  0
    0.8957   -2.0222   -0.2473 H   0  0  0  0  0  0  0  0  0  0  0  0
   -1.4944    1.9953    1.6070 H   0  0  0  0  0  0  0  0  0  0  0  0
   -1.0627    0.3105    1.9173 H   0  0  0  0  0  0  0  0  0  0  0  0
    2.2727   -3.2528    9.2372 H   0  0  0  0  0  0  0  0  0  0  0  0
    3.6510   -4.2545    8.8497 H   0  0  0  0  0  0  0  0  0  0  0  0
    4.3226   -2.1064    9.6253 H   0  0  0  0  0  0  0  0  0  0  0  0
    4.7762   -2.3205    8.0369 H   0  0  0  0  0  0  0  0  0  0  0  0
    0.6465   -6.1424    2.3864 H   0  0  0  0  0  0  0  0  0  0  0  0
   -0.8404   -6.0264    0.7562 H   0  0  0  0  0  0  0  0  0  0  0  0
   -0.4134   -5.5762   -0.8772 H   0  0  0  0  0  0  0  0  0  0  0  0
    0.9208   -7.4874   -0.1206 H   0  0  0  0  0  0  0  0  0  0  0  0
    1.9351   -6.0935   -0.4059 H   0  0  0  0  0  0  0  0  0  0  0  0
    2.5219   -7.1828    1.7094 H   0  0  0  0  0  0  0  0  0  0  0  0
    1.8965   -5.5754    1.9890 H   0  0  0  0  0  0  0  0  0  0  0  0
    0.9215   -7.1622    3.4716 H   0  0  0  0  0  0  0  0  0  0  0  0
   -0.2345   -6.5295    2.4529 H   0  0  0  0  0  0  0  0  0  0  0  0
  1  2  1  0  0  0  0
  1 27  1  0  0  0  0
  1 28  1  0  0  0  0
  1 29  1  0  0  0  0
  2  3  1  0  0  0  0
  2 30  1  0  0  0  0
  2 31  1  0  0  0  0
  3  4  1  0  0  0  0
  3 26  1  0  0  0  0
  4  5  1  0  0  0  0
  4 11  2  0  0  0  0
  5  6  2  0  0  0  0
  5  9  1  0  0  0  0
  6  7  1  0  0  0  0
  7  8  1  0  0  0  0
  8  9  2  0  0  0  0
  9 10  1  0  0  0  0
 10 32  1  0  0  0  0
 10 33  1  0  0  0  0
 11 12  1  0  0  0  0
 12 13  1  0  0  0  0
 12 26  2  0  0  0  0
 13 14  1  0  0  0  0
 13 18  2  0  0  0  0
 14 15  3  0  0  0  0
 15 16  1  0  0  0  0
 16 17  1  0  0  0  0
 16 34  1  0  0  0  0
 16 35  1  0  0  0  0
 17 36  1  0  0  0  0
 17 37  1  0  0  0  0
 18 19  1  0  0  0  0
 19 20  2  0  0  0  0
 19 38  1  0  0  0  0
 20 21  1  0  0  0  0
 20 26  1  0  0  0  0
 21 22  1  0  0  0  0
 22 23  1  0  0  0  0
 22 39  1  0  0  0  0
 22 40  1  0  0  0  0
 23 24  1  0  0  0  0
 23 41  1  0  0  0  0
 23 42  1  0  0  0  0
 24 25  1  0  0  0  0
 24 43  1  0  0  0  0
 24 44  1  0  0  0  0
 25 45  1  0  0  0  0
 25 46  1  0  0  0  0
M  END
