
 OpenBabel03132512093D

 58 61  0  0  0  0  0  0  0  0999 V2000
    1.0381   -0.0628   -0.0679 C   0  0  0  0  0  0  0  0  0  0  0  0
    0.5315   -1.4422    0.3205 C   0  0  0  0  0  0  0  0  0  0  0  0
    1.0215   -1.7839    1.6637 N   0  0  0  0  0  0  0  0  0  0  0  0
    1.4485   -0.9378    2.5787 C   0  0  0  0  0  0  0  0  0  0  0  0
    1.5867    0.5621    2.3748 C   0  0  0  0  0  0  0  0  0  0  0  0
    3.0490    1.5641    2.5748 N   0  0  0  0  0  0  0  0  0  0  0  0
    2.3505    3.1153    2.2406 O   0  0  0  0  0  0  0  0  0  0  0  0
    1.0457    2.8215    1.9920 N   0  0  0  0  0  0  0  0  0  0  0  0
    0.6308    1.5148    2.0492 C   0  0  0  0  0  0  0  0  0  0  0  0
   -0.7645    1.1402    1.7778 N   0  0  0  0  0  0  0  0  0  0  0  0
    1.7407   -1.5774    3.7017 N   0  0  0  0  0  0  0  0  0  0  0  0
    1.5003   -2.8760    3.5274 C   0  0  0  0  0  0  0  0  0  0  0  0
    1.6132   -4.0280    4.3337 C   0  0  0  0  0  0  0  0  0  0  0  0
    2.1149   -3.9171    5.7642 C   0  0  0  0  0  0  0  0  0  0  0  0
    2.5453   -3.8220    6.9913 C   0  0  0  0  0  0  0  0  0  0  0  0
    3.0470   -3.7111    8.4218 C   0  0  0  0  0  0  0  0  0  0  0  0
    3.3597   -2.2575    8.7379 C   0  0  0  0  0  0  0  0  0  0  0  0
    1.9768   -4.2179    9.3749 C   0  0  0  0  0  0  0  0  0  0  0  0
    4.2234   -4.4919    8.5727 O   0  0  0  0  0  0  0  0  0  0  0  0
    1.2711   -5.2306    3.8225 N   0  0  0  0  0  0  0  0  0  0  0  0
    0.8262   -5.3601    2.5449 C   0  0  0  0  0  0  0  0  0  0  0  0
    0.6929   -4.2915    1.7279 C   0  0  0  0  0  0  0  0  0  0  0  0
    0.2139   -4.4632    0.4022 O   0  0  0  0  0  0  0  0  0  0  0  0
   -0.1261   -5.7595   -0.0676 C   0  0  0  0  0  0  0  0  0  0  0  0
    1.0966   -6.6599    0.0006 C   0  0  0  0  0  0  0  0  0  0  0  0
    1.7116   -5.4446   -0.6898 C   0  0  0  0  0  0  0  0  0  0  0  0
    1.3904   -5.4444   -2.1687 C   0  0  0  0  0  0  0  0  0  0  0  0
    1.8774   -6.6769   -2.8016 N   0  0  0  0  0  0  0  0  0  0  0  0
    1.1932   -7.8270   -2.2136 C   0  0  0  0  0  0  0  0  0  0  0  0
    1.4980   -7.9405   -0.7291 C   0  0  0  0  0  0  0  0  0  0  0  0
    1.0279   -3.0182    2.1925 C   0  0  0  0  0  0  0  0  0  0  0  0
    0.6815    0.6595    0.6364 H   0  0  0  0  0  0  0  0  0  0  0  0
    0.6815    0.1860   -1.0455 H   0  0  0  0  0  0  0  0  0  0  0  0
    2.1081   -0.0628   -0.0679 H   0  0  0  0  0  0  0  0  0  0  0  0
   -0.5385   -1.4422    0.3205 H   0  0  0  0  0  0  0  0  0  0  0  0
    0.8881   -2.1645   -0.3837 H   0  0  0  0  0  0  0  0  0  0  0  0
   -1.4485    1.8587    1.5406 H   0  0  0  0  0  0  0  0  0  0  0  0
   -1.0486    0.1618    1.8266 H   0  0  0  0  0  0  0  0  0  0  0  0
    2.4732   -1.6691    8.6242 H   0  0  0  0  0  0  0  0  0  0  0  0
    3.7129   -2.1795    9.7449 H   0  0  0  0  0  0  0  0  0  0  0  0
    4.1131   -1.9008    8.0670 H   0  0  0  0  0  0  0  0  0  0  0  0
    1.7566   -5.2411    9.1524 H   0  0  0  0  0  0  0  0  0  0  0  0
    2.3300   -4.1398   10.3819 H   0  0  0  0  0  0  0  0  0  0  0  0
    1.0903   -3.6295    9.2612 H   0  0  0  0  0  0  0  0  0  0  0  0
    4.5535   -4.4190    9.5139 H   0  0  0  0  0  0  0  0  0  0  0  0
    0.5751   -6.3327    2.1763 H   0  0  0  0  0  0  0  0  0  0  0  0
   -0.9041   -6.1675    0.5433 H   0  0  0  0  0  0  0  0  0  0  0  0
   -0.4650   -5.6942   -1.0804 H   0  0  0  0  0  0  0  0  0  0  0  0
    1.2284   -7.1817    0.9255 H   0  0  0  0  0  0  0  0  0  0  0  0
    1.3028   -4.5585   -0.2509 H   0  0  0  0  0  0  0  0  0  0  0  0
    2.7736   -5.4690   -0.5619 H   0  0  0  0  0  0  0  0  0  0  0  0
    0.3290   -5.3884   -2.2921 H   0  0  0  0  0  0  0  0  0  0  0  0
    1.8606   -4.6017   -2.6310 H   0  0  0  0  0  0  0  0  0  0  0  0
    1.6875   -6.6433   -3.8032 H   0  0  0  0  0  0  0  0  0  0  0  0
    1.5374   -8.7149   -2.7015 H   0  0  0  0  0  0  0  0  0  0  0  0
    0.1377   -7.7120   -2.3465 H   0  0  0  0  0  0  0  0  0  0  0  0
    2.5493   -8.0947   -0.6032 H   0  0  0  0  0  0  0  0  0  0  0  0
    0.9518   -8.7646   -0.3198 H   0  0  0  0  0  0  0  0  0  0  0  0
  1  2  1  0  0  0  0
  1 32  1  0  0  0  0
  1 33  1  0  0  0  0
  1 34  1  0  0  0  0
  2  3  1  0  0  0  0
  2 35  1  0  0  0  0
  2 36  1  0  0  0  0
  3  4  1  0  0  0  0
  3 31  1  0  0  0  0
  4  5  1  0  0  0  0
  4 11  2  0  0  0  0
  5  6  2  0  0  0  0
  5  9  1  0  0  0  0
  6  7  1  0  0  0  0
  7  8  1  0  0  0  0
  8  9  2  0  0  0  0
  9 10  1  0  0  0  0
 10 37  1  0  0  0  0
 10 38  1  0  0  0  0
 11 12  1  0  0  0  0
 12 13  1  0  0  0  0
 12 31  2  0  0  0  0
 13 14  1  0  0  0  0
 13 20  2  0  0  0  0
 14 15  3  0  0  0  0
 15 16  1  0  0  0  0
 16 17  1  0  0  0  0
 16 18  1  0  0  0  0
 16 19  1  0  0  0  0
 17 39  1  0  0  0  0
 17 40  1  0  0  0  0
 17 41  1  0  0  0  0
 18 42  1  0  0  0  0
 18 43  1  0  0  0  0
 18 44  1  0  0  0  0
 19 45  1  0  0  0  0
 20 21  1  0  0  0  0
 21 22  2  0  0  0  0
 21 46  1  0  0  0  0
 22 23  1  0  0  0  0
 22 31  1  0  0  0  0
 23 24  1  0  0  0  0
 24 25  1  0  0  0  0
 24 47  1  0  0  0  0
 24 48  1  0  0  0  0
 25 26  1  0  0  0  0
 25 30  1  0  0  0  0
 25 49  1  0  0  0  0
 26 27  1  0  0  0  0
 26 50  1  0  0  0  0
 26 51  1  0  0  0  0
 27 28  1  0  0  0  0
 27 52  1  0  0  0  0
 27 53  1  0  0  0  0
 28 29  1  0  0  0  0
 28 54  1  0  0  0  0
 29 30  1  0  0  0  0
 29 55  1  0  0  0  0
 29 56  1  0  0  0  0
 30 57  1  0  0  0  0
 30 58  1  0  0  0  0
M  END
