
 OpenBabel03132514253D

 46 48  0  0  0  0  0  0  0  0999 V2000
    1.0666   -0.0008    0.0746 C   0  0  0  0  0  0  0  0  0  0  0  0
    0.5600   -0.9641    1.1356 C   0  0  0  0  0  0  0  0  0  0  0  0
    1.0500   -0.5413    2.4554 N   0  0  0  0  0  0  0  0  0  0  0  0
    1.0101    0.6945    2.9101 C   0  0  0  0  0  0  0  0  0  0  0  0
    0.5489    1.8991    2.1059 C   0  0  0  0  0  0  0  0  0  0  0  0
    1.2744    3.5057    1.8325 N   0  0  0  0  0  0  0  0  0  0  0  0
   -0.0658    4.2658    1.0376 O   0  0  0  0  0  0  0  0  0  0  0  0
   -1.0071    3.2842    1.0083 N   0  0  0  0  0  0  0  0  0  0  0  0
   -0.7117    2.0568    1.5462 C   0  0  0  0  0  0  0  0  0  0  0  0
   -1.6873    0.9573    1.5306 N   0  0  0  0  0  0  0  0  0  0  0  0
    1.4283    0.7404    4.1665 N   0  0  0  0  0  0  0  0  0  0  0  0
    1.7509   -0.4928    4.5535 C   0  0  0  0  0  0  0  0  0  0  0  0
    2.2429   -1.0676    5.7441 C   0  0  0  0  0  0  0  0  0  0  0  0
    2.5194   -0.1972    6.9591 C   0  0  0  0  0  0  0  0  0  0  0  0
    2.7565    0.5495    8.0014 C   0  0  0  0  0  0  0  0  0  0  0  0
    3.0330    1.4199    9.2164 C   0  0  0  0  0  0  0  0  0  0  0  0
    4.4764    1.6805    9.3143 N   0  0  0  0  0  0  0  0  0  0  0  0
    2.4660   -2.3988    5.7941 N   0  0  0  0  0  0  0  0  0  0  0  0
    2.2343   -3.1999    4.7209 C   0  0  0  0  0  0  0  0  0  0  0  0
    1.7584   -2.7062    3.5561 C   0  0  0  0  0  0  0  0  0  0  0  0
    1.5172   -3.5751    2.4592 O   0  0  0  0  0  0  0  0  0  0  0  0
    1.7762   -4.9656    2.5847 C   0  0  0  0  0  0  0  0  0  0  0  0
    3.2460   -5.1803    2.9070 C   0  0  0  0  0  0  0  0  0  0  0  0
    3.5855   -4.4817    4.2136 C   0  0  0  0  0  0  0  0  0  0  0  0
    2.7603   -5.0382    5.2954 N   0  0  0  0  0  0  0  0  0  0  0  0
    1.5047   -1.3385    3.4357 C   0  0  0  0  0  0  0  0  0  0  0  0
    0.7100    0.9850    0.2884 H   0  0  0  0  0  0  0  0  0  0  0  0
    0.7100   -0.3086   -0.8862 H   0  0  0  0  0  0  0  0  0  0  0  0
    2.1366   -0.0008    0.0746 H   0  0  0  0  0  0  0  0  0  0  0  0
   -0.5100   -0.9641    1.1356 H   0  0  0  0  0  0  0  0  0  0  0  0
    0.9166   -1.9500    0.9217 H   0  0  0  0  0  0  0  0  0  0  0  0
   -2.6074    1.0978    1.1134 H   0  0  0  0  0  0  0  0  0  0  0  0
   -1.4441    0.0539    1.9368 H   0  0  0  0  0  0  0  0  0  0  0  0
    2.5090    2.3475    9.1173 H   0  0  0  0  0  0  0  0  0  0  0  0
    2.7010    0.9153   10.0996 H   0  0  0  0  0  0  0  0  0  0  0  0
    4.6619    2.2646   10.1296 H   0  0  0  0  0  0  0  0  0  0  0  0
    4.9759    0.7962    9.4087 H   0  0  0  0  0  0  0  0  0  0  0  0
    2.4338   -4.2482    4.8001 H   0  0  0  0  0  0  0  0  0  0  0  0
    1.1755   -5.3707    3.3721 H   0  0  0  0  0  0  0  0  0  0  0  0
    1.5372   -5.4574    1.6649 H   0  0  0  0  0  0  0  0  0  0  0  0
    3.4411   -6.2281    3.0015 H   0  0  0  0  0  0  0  0  0  0  0  0
    3.8467   -4.7753    2.1195 H   0  0  0  0  0  0  0  0  0  0  0  0
    4.6202   -4.6328    4.4405 H   0  0  0  0  0  0  0  0  0  0  0  0
    3.3904   -3.4339    4.1190 H   0  0  0  0  0  0  0  0  0  0  0  0
    2.9881   -4.5694    6.1722 H   0  0  0  0  0  0  0  0  0  0  0  0
    1.7740   -4.8941    5.0792 H   0  0  0  0  0  0  0  0  0  0  0  0
  1  2  1  0  0  0  0
  1 27  1  0  0  0  0
  1 28  1  0  0  0  0
  1 29  1  0  0  0  0
  2  3  1  0  0  0  0
  2 30  1  0  0  0  0
  2 31  1  0  0  0  0
  3  4  1  0  0  0  0
  3 26  1  0  0  0  0
  4  5  1  0  0  0  0
  4 11  2  0  0  0  0
  5  6  2  0  0  0  0
  5  9  1  0  0  0  0
  6  7  1  0  0  0  0
  7  8  1  0  0  0  0
  8  9  2  0  0  0  0
  9 10  1  0  0  0  0
 10 32  1  0  0  0  0
 10 33  1  0  0  0  0
 11 12  1  0  0  0  0
 12 13  1  0  0  0  0
 12 26  2  0  0  0  0
 13 14  1  0  0  0  0
 13 18  2  0  0  0  0
 14 15  3  0  0  0  0
 15 16  1  0  0  0  0
 16 17  1  0  0  0  0
 16 34  1  0  0  0  0
 16 35  1  0  0  0  0
 17 36  1  0  0  0  0
 17 37  1  0  0  0  0
 18 19  1  0  0  0  0
 19 20  2  0  0  0  0
 19 38  1  0  0  0  0
 20 21  1  0  0  0  0
 20 26  1  0  0  0  0
 21 22  1  0  0  0  0
 22 23  1  0  0  0  0
 22 39  1  0  0  0  0
 22 40  1  0  0  0  0
 23 24  1  0  0  0  0
 23 41  1  0  0  0  0
 23 42  1  0  0  0  0
 24 25  1  0  0  0  0
 24 43  1  0  0  0  0
 24 44  1  0  0  0  0
 25 45  1  0  0  0  0
 25 46  1  0  0  0  0
M  END
