
 OpenBabel03132512093D

 37 39  0  0  0  0  0  0  0  0999 V2000
    1.0122    0.0695   -0.0709 C   0  0  0  0  0  0  0  0  0  0  0  0
    0.5055   -1.3082    0.3236 C   0  0  0  0  0  0  0  0  0  0  0  0
   -0.5889   -1.4947    1.1684 C   0  0  0  0  0  0  0  0  0  0  0  0
   -0.9832   -2.7626    1.5324 C   0  0  0  0  0  0  0  0  0  0  0  0
   -0.2822   -3.8687    1.0660 C   0  0  0  0  0  0  0  0  0  0  0  0
   -0.4198   -5.2296    1.2485 N   0  0  0  0  0  0  0  0  0  0  0  0
    0.5823   -5.8875    0.5290 C   0  0  0  0  0  0  0  0  0  0  0  0
    0.7555   -7.2960    0.4789 O   0  0  0  0  0  0  0  0  0  0  0  0
    1.3332   -5.0227   -0.0881 C   0  0  0  0  0  0  0  0  0  0  0  0
    2.4879   -5.3339   -0.9430 N   0  0  0  0  0  0  0  0  0  0  0  0
    3.1434   -4.3939   -1.4924 N   0  0  0  0  0  0  0  0  0  0  0  0
    4.2981   -4.7051   -2.3472 C   0  0  0  0  0  0  0  0  0  0  0  0
    4.2289   -5.7421   -3.3188 C   0  0  0  0  0  0  0  0  0  0  0  0
    5.4148   -6.2296   -3.8919 C   0  0  0  0  0  0  0  0  0  0  0  0
    6.5259   -5.5687   -3.7497 C   0  0  0  0  0  0  0  0  0  0  0  0
    8.0559   -6.2057   -4.4773 S   0  0  0  0  0  0  0  0  0  0  0  0
    8.4130   -7.7899   -3.7989 N   0  0  0  0  0  0  0  0  0  0  0  0
    7.8882   -6.3261   -5.9937 O   0  0  0  0  0  0  0  0  0  0  0  0
    9.2069   -5.2462   -4.1659 O   0  0  0  0  0  0  0  0  0  0  0  0
    6.5399   -4.3642   -3.0339 C   0  0  0  0  0  0  0  0  0  0  0  0
    5.4389   -4.0271   -2.2096 C   0  0  0  0  0  0  0  0  0  0  0  0
    0.8253   -3.6866    0.2191 C   0  0  0  0  0  0  0  0  0  0  0  0
    1.2144   -2.3950   -0.1485 C   0  0  0  0  0  0  0  0  0  0  0  0
    0.6555    0.7949    0.6302 H   0  0  0  0  0  0  0  0  0  0  0  0
    0.6555    0.3139   -1.0496 H   0  0  0  0  0  0  0  0  0  0  0  0
    2.0822    0.0695   -0.0709 H   0  0  0  0  0  0  0  0  0  0  0  0
   -1.1261   -0.6456    1.5364 H   0  0  0  0  0  0  0  0  0  0  0  0
   -1.8290   -2.8965    2.1740 H   0  0  0  0  0  0  0  0  0  0  0  0
   -1.1363   -5.6821    1.8162 H   0  0  0  0  0  0  0  0  0  0  0  0
    1.4997   -7.6894   -0.0609 H   0  0  0  0  0  0  0  0  0  0  0  0
    3.2822   -6.1467   -3.6102 H   0  0  0  0  0  0  0  0  0  0  0  0
    5.4042   -7.1451   -4.4457 H   0  0  0  0  0  0  0  0  0  0  0  0
    9.2752   -8.1489   -4.2089 H   0  0  0  0  0  0  0  0  0  0  0  0
    8.5248   -7.7097   -2.7882 H   0  0  0  0  0  0  0  0  0  0  0  0
    7.3777   -3.7029   -3.1097 H   0  0  0  0  0  0  0  0  0  0  0  0
    5.5205   -3.2414   -1.4879 H   0  0  0  0  0  0  0  0  0  0  0  0
    2.0567   -2.2495   -0.7921 H   0  0  0  0  0  0  0  0  0  0  0  0
  1  2  1  0  0  0  0
  1 24  1  0  0  0  0
  1 25  1  0  0  0  0
  1 26  1  0  0  0  0
  2  3  1  0  0  0  0
  2 23  2  0  0  0  0
  3  4  2  0  0  0  0
  3 27  1  0  0  0  0
  4  5  1  0  0  0  0
  4 28  1  0  0  0  0
  5  6  1  0  0  0  0
  5 22  2  0  0  0  0
  6  7  1  0  0  0  0
  6 29  1  0  0  0  0
  7  8  1  0  0  0  0
  7  9  2  0  0  0  0
  8 30  1  0  0  0  0
  9 10  1  0  0  0  0
  9 22  1  0  0  0  0
 10 11  2  0  0  0  0
 11 12  1  0  0  0  0
 12 13  1  0  0  0  0
 12 21  2  0  0  0  0
 13 14  2  0  0  0  0
 13 31  1  0  0  0  0
 14 15  1  0  0  0  0
 14 32  1  0  0  0  0
 15 16  1  0  0  0  0
 15 20  2  0  0  0  0
 16 17  1  0  0  0  0
 16 18  2  0  0  0  0
 16 19  2  0  0  0  0
 17 33  1  0  0  0  0
 17 34  1  0  0  0  0
 20 21  1  0  0  0  0
 20 35  1  0  0  0  0
 21 36  1  0  0  0  0
 22 23  1  0  0  0  0
 23 37  1  0  0  0  0
M  END
