
 OpenBabel03132514253D

 49 53  0  0  0  0  0  0  0  0999 V2000
    1.3440   -0.2250    0.0360 C   0  0  0  0  0  0  0  0  0  0  0  0
    0.8920    1.0800   -0.0700 C   0  0  0  0  0  0  0  0  0  0  0  0
   -0.5090    1.2150    0.0750 C   0  0  0  0  0  0  0  0  0  0  0  0
   -1.3730    0.2230   -0.0410 C   0  0  0  0  0  0  0  0  0  0  0  0
   -2.8621    0.4740   -0.2141 C   0  0  0  0  0  0  0  0  0  0  0  0
   -3.3536    1.1966    0.9051 O   0  0  0  0  0  0  0  0  0  0  0  0
   -3.2481    0.6440    2.2090 C   0  0  0  0  0  0  0  0  0  0  0  0
   -4.2961    0.7453    3.1090 C   0  0  0  0  0  0  0  0  0  0  0  0
   -3.9263    0.4893    4.4506 C   0  0  0  0  0  0  0  0  0  0  0  0
   -2.8209   -0.1335    4.8169 C   0  0  0  0  0  0  0  0  0  0  0  0
   -2.6434   -0.6605    6.1777 N   0  0  0  0  0  0  0  0  0  0  0  0
   -3.7132   -0.5005    7.1732 C   0  0  0  0  0  0  0  0  0  0  0  0
   -4.8949    0.1503    6.8270 N   0  0  0  0  0  0  0  0  0  0  0  0
   -5.9086    0.3019    7.7702 C   0  0  0  0  0  0  0  0  0  0  0  0
   -5.7404   -0.1974    9.0595 N   0  0  0  0  0  0  0  0  0  0  0  0
   -4.6242   -0.8122    9.3865 C   0  0  0  0  0  0  0  0  0  0  0  0
   -3.6360   -0.9578    8.4268 C   0  0  0  0  0  0  0  0  0  0  0  0
   -2.6243   -1.8812    8.7812 C   0  0  0  0  0  0  0  0  0  0  0  0
   -2.3956   -2.3065   10.0104 C   0  0  0  0  0  0  0  0  0  0  0  0
   -1.1058   -3.0185   10.3846 C   0  0  0  0  0  0  0  0  0  0  0  0
   -1.0433   -4.2642   10.8757 C   0  0  0  0  0  0  0  0  0  0  0  0
    0.3362   -4.5141   11.0800 C   0  0  0  0  0  0  0  0  0  0  0  0
    1.0054   -3.3991   10.6938 C   0  0  0  0  0  0  0  0  0  0  0  0
    0.1181   -2.4520   10.2427 O   0  0  0  0  0  0  0  0  0  0  0  0
   -3.3814   -2.0719   10.9283 C   0  0  0  0  0  0  0  0  0  0  0  0
   -4.4655   -1.2876   10.6162 C   0  0  0  0  0  0  0  0  0  0  0  0
   -1.8503   -0.2618    3.8625 C   0  0  0  0  0  0  0  0  0  0  0  0
   -2.0930    0.0889    2.5563 C   0  0  0  0  0  0  0  0  0  0  0  0
   -0.8560   -1.0420    0.0030 C   0  0  0  0  0  0  0  0  0  0  0  0
    0.5020   -1.2510   -0.0040 C   0  0  0  0  0  0  0  0  0  0  0  0
    2.3915   -0.4099    0.1523 H   0  0  0  0  0  0  0  0  0  0  0  0
    1.5432    1.9107   -0.2456 H   0  0  0  0  0  0  0  0  0  0  0  0
   -0.8953    2.1885    0.2939 H   0  0  0  0  0  0  0  0  0  0  0  0
   -3.0267    1.0422   -1.1057 H   0  0  0  0  0  0  0  0  0  0  0  0
   -3.3754   -0.4619   -0.2878 H   0  0  0  0  0  0  0  0  0  0  0  0
   -5.2946    0.9946    2.8164 H   0  0  0  0  0  0  0  0  0  0  0  0
   -4.5883    0.8234    5.2219 H   0  0  0  0  0  0  0  0  0  0  0  0
   -1.7780   -1.1371    6.4312 H   0  0  0  0  0  0  0  0  0  0  0  0
   -6.8164    0.8019    7.5042 H   0  0  0  0  0  0  0  0  0  0  0  0
   -3.6377   -0.4206    7.5014 H   0  0  0  0  0  0  0  0  0  0  0  0
   -2.0011   -2.2614    7.9989 H   0  0  0  0  0  0  0  0  0  0  0  0
   -1.8599   -4.9274   11.0714 H   0  0  0  0  0  0  0  0  0  0  0  0
    0.7689   -5.4133   11.4663 H   0  0  0  0  0  0  0  0  0  0  0  0
    2.0675   -3.2754   10.7345 H   0  0  0  0  0  0  0  0  0  0  0  0
   -3.3076   -2.5054   11.9038 H   0  0  0  0  0  0  0  0  0  0  0  0
   -0.8879   -0.6407    4.1366 H   0  0  0  0  0  0  0  0  0  0  0  0
   -1.3443   -0.0869    1.8124 H   0  0  0  0  0  0  0  0  0  0  0  0
   -1.5185   -1.8813    0.0435 H   0  0  0  0  0  0  0  0  0  0  0  0
    0.8845   -2.2496   -0.0420 H   0  0  0  0  0  0  0  0  0  0  0  0
  1  2  1  0  0  0  0
  1 30  2  0  0  0  0
  1 31  1  0  0  0  0
  2  3  2  0  0  0  0
  2 32  1  0  0  0  0
  3  4  1  0  0  0  0
  3 33  1  0  0  0  0
  4  5  1  0  0  0  0
  4 29  2  0  0  0  0
  5  6  1  0  0  0  0
  5 34  1  0  0  0  0
  5 35  1  0  0  0  0
  6  7  1  0  0  0  0
  7  8  1  0  0  0  0
  7 28  2  0  0  0  0
  8  9  2  0  0  0  0
  8 36  1  0  0  0  0
  9 10  1  0  0  0  0
  9 37  1  0  0  0  0
 10 11  1  0  0  0  0
 10 27  2  0  0  0  0
 11 12  1  0  0  0  0
 11 38  1  0  0  0  0
 12 13  1  0  0  0  0
 12 26  2  0  0  0  0
 13 14  2  0  0  0  0
 14 15  1  0  0  0  0
 14 39  1  0  0  0  0
 15 16  2  0  0  0  0
 16 17  1  0  0  0  0
 16 26  1  0  0  0  0
 17 18  2  0  0  0  0
 17 40  1  0  0  0  0
 18 19  1  0  0  0  0
 18 41  1  0  0  0  0
 19 20  1  0  0  0  0
 19 25  2  0  0  0  0
 20 21  2  0  0  0  0
 20 24  1  0  0  0  0
 21 22  1  0  0  0  0
 21 42  1  0  0  0  0
 22 23  2  0  0  0  0
 22 43  1  0  0  0  0
 23 24  1  0  0  0  0
 23 44  1  0  0  0  0
 25 26  1  0  0  0  0
 25 45  1  0  0  0  0
 27 28  1  0  0  0  0
 27 46  1  0  0  0  0
 28 47  1  0  0  0  0
 29 30  1  0  0  0  0
 29 48  1  0  0  0  0
 30 49  1  0  0  0  0
M  END
