
 OpenBabel03132514253D

 66 70  0  0  0  0  0  0  0  0999 V2000
    1.0885    0.0458   -0.0080 C   0  0  0  0  0  0  0  0  0  0  0  0
    0.4852    0.7115   -1.5792 S   0  0  0  0  0  0  0  0  0  0  0  0
    0.9953   -0.1576   -2.7310 O   0  0  0  0  0  0  0  0  0  0  0  0
   -1.0452    0.7115   -1.5792 O   0  0  0  0  0  0  0  0  0  0  0  0
    1.0885    2.4051   -1.7884 C   0  0  0  0  0  0  0  0  0  0  0  0
    0.5819    3.2684   -0.6444 C   0  0  0  0  0  0  0  0  0  0  0  0
    1.0719    2.7277    0.6317 N   0  0  0  0  0  0  0  0  0  0  0  0
    0.5819    3.5625    1.7380 C   0  0  0  0  0  0  0  0  0  0  0  0
   -0.9381    3.5625    1.7380 C   0  0  0  0  0  0  0  0  0  0  0  0
   -1.6818    2.4472    1.7375 C   0  0  0  0  0  0  0  0  0  0  0  0
   -3.0253    2.8966    1.7220 C   0  0  0  0  0  0  0  0  0  0  0  0
   -2.9926    4.2528    1.7167 C   0  0  0  0  0  0  0  0  0  0  0  0
   -4.2158    5.1547    1.6907 C   0  0  0  0  0  0  0  0  0  0  0  0
   -5.1605    5.0824    2.7324 C   0  0  0  0  0  0  0  0  0  0  0  0
   -6.2681    5.8838    2.7289 C   0  0  0  0  0  0  0  0  0  0  0  0
   -6.4653    6.8190    1.6884 C   0  0  0  0  0  0  0  0  0  0  0  0
   -7.5636    7.6405    1.7093 N   0  0  0  0  0  0  0  0  0  0  0  0
   -7.6836    8.4774    0.7157 C   0  0  0  0  0  0  0  0  0  0  0  0
   -6.8384    8.6118   -0.3523 N   0  0  0  0  0  0  0  0  0  0  0  0
   -5.7918    7.8231   -0.3926 C   0  0  0  0  0  0  0  0  0  0  0  0
   -4.8712    7.9161   -1.5349 N   0  0  0  0  0  0  0  0  0  0  0  0
   -5.1305    8.8834   -2.6110 C   0  0  0  0  0  0  0  0  0  0  0  0
   -5.4252    8.3330   -3.8474 C   0  0  0  0  0  0  0  0  0  0  0  0
   -5.5053    9.2826   -4.8933 C   0  0  0  0  0  0  0  0  0  0  0  0
   -5.6558   10.5824   -4.7149 C   0  0  0  0  0  0  0  0  0  0  0  0
   -6.0457   11.4430   -5.7750 O   0  0  0  0  0  0  0  0  0  0  0  0
   -6.1962   12.8353   -5.5404 C   0  0  0  0  0  0  0  0  0  0  0  0
   -7.2592   13.0579   -4.4770 C   0  0  0  0  0  0  0  0  0  0  0  0
   -7.5982   14.3521   -4.1181 C   0  0  0  0  0  0  0  0  0  0  0  0
   -8.3561   14.4367   -2.9263 C   0  0  0  0  0  0  0  0  0  0  0  0
   -9.0053   13.4257   -2.3782 C   0  0  0  0  0  0  0  0  0  0  0  0
   -8.6735   12.1765   -2.8242 C   0  0  0  0  0  0  0  0  0  0  0  0
   -7.8360   12.0098   -3.9006 C   0  0  0  0  0  0  0  0  0  0  0  0
   -5.4162   11.0550   -3.4544 C   0  0  0  0  0  0  0  0  0  0  0  0
   -5.1998   10.1936   -2.4061 C   0  0  0  0  0  0  0  0  0  0  0  0
   -5.5214    6.8790    0.6385 C   0  0  0  0  0  0  0  0  0  0  0  0
   -4.3917    6.0297    0.6569 C   0  0  0  0  0  0  0  0  0  0  0  0
   -1.6904    4.6908    1.7384 O   0  0  0  0  0  0  0  0  0  0  0  0
    0.7319   -0.9554    0.1156 H   0  0  0  0  0  0  0  0  0  0  0  0
    0.7319    0.6535    0.7973 H   0  0  0  0  0  0  0  0  0  0  0  0
    2.1585    0.0458   -0.0080 H   0  0  0  0  0  0  0  0  0  0  0  0
    2.1585    2.4051   -1.7884 H   0  0  0  0  0  0  0  0  0  0  0  0
    0.7319    2.7987   -2.7172 H   0  0  0  0  0  0  0  0  0  0  0  0
    0.9385    4.2696   -0.7680 H   0  0  0  0  0  0  0  0  0  0  0  0
   -0.4881    3.2684   -0.6444 H   0  0  0  0  0  0  0  0  0  0  0  0
    0.7319    1.7733    0.7495 H   0  0  0  0  0  0  0  0  0  0  0  0
    0.9386    3.1690    2.6669 H   0  0  0  0  0  0  0  0  0  0  0  0
    0.9386    4.5637    1.6144 H   0  0  0  0  0  0  0  0  0  0  0  0
   -1.3352    1.4349    1.7469 H   0  0  0  0  0  0  0  0  0  0  0  0
   -3.9012    2.2820    1.7156 H   0  0  0  0  0  0  0  0  0  0  0  0
   -5.0097    4.3923    3.5360 H   0  0  0  0  0  0  0  0  0  0  0  0
   -6.9877    5.8026    3.5166 H   0  0  0  0  0  0  0  0  0  0  0  0
   -8.5330    9.1277    0.7382 H   0  0  0  0  0  0  0  0  0  0  0  0
   -4.0525    7.3094   -1.5809 H   0  0  0  0  0  0  0  0  0  0  0  0
   -5.5784    7.2848   -3.9980 H   0  0  0  0  0  0  0  0  0  0  0  0
   -5.4393    8.9225   -5.8987 H   0  0  0  0  0  0  0  0  0  0  0  0
   -5.2656   13.2432   -5.2052 H   0  0  0  0  0  0  0  0  0  0  0  0
   -6.4921   13.3199   -6.4473 H   0  0  0  0  0  0  0  0  0  0  0  0
   -7.3127   15.2100   -4.6903 H   0  0  0  0  0  0  0  0  0  0  0  0
   -8.4067   15.3859   -2.4349 H   0  0  0  0  0  0  0  0  0  0  0  0
   -9.7508   13.5760   -1.6256 H   0  0  0  0  0  0  0  0  0  0  0  0
   -9.0717   11.3164   -2.3277 H   0  0  0  0  0  0  0  0  0  0  0  0
   -7.6469   11.0266   -4.2780 H   0  0  0  0  0  0  0  0  0  0  0  0
   -5.3968   12.1108   -3.2820 H   0  0  0  0  0  0  0  0  0  0  0  0
   -5.0860   10.5820   -1.4156 H   0  0  0  0  0  0  0  0  0  0  0  0
   -3.6759    6.0721   -0.1373 H   0  0  0  0  0  0  0  0  0  0  0  0
  1  2  1  0  0  0  0
  1 39  1  0  0  0  0
  1 40  1  0  0  0  0
  1 41  1  0  0  0  0
  2  3  2  0  0  0  0
  2  4  2  0  0  0  0
  2  5  1  0  0  0  0
  5  6  1  0  0  0  0
  5 42  1  0  0  0  0
  5 43  1  0  0  0  0
  6  7  1  0  0  0  0
  6 44  1  0  0  0  0
  6 45  1  0  0  0  0
  7  8  1  0  0  0  0
  7 46  1  0  0  0  0
  8  9  1  0  0  0  0
  8 47  1  0  0  0  0
  8 48  1  0  0  0  0
  9 10  2  0  0  0  0
  9 38  1  0  0  0  0
 10 11  1  0  0  0  0
 10 49  1  0  0  0  0
 11 12  2  0  0  0  0
 11 50  1  0  0  0  0
 12 13  1  0  0  0  0
 12 38  1  0  0  0  0
 13 14  1  0  0  0  0
 13 37  2  0  0  0  0
 14 15  2  0  0  0  0
 14 51  1  0  0  0  0
 15 16  1  0  0  0  0
 15 52  1  0  0  0  0
 16 17  1  0  0  0  0
 16 36  2  0  0  0  0
 17 18  2  0  0  0  0
 18 19  1  0  0  0  0
 18 53  1  0  0  0  0
 19 20  2  0  0  0  0
 20 21  1  0  0  0  0
 20 36  1  0  0  0  0
 21 22  1  0  0  0  0
 21 54  1  0  0  0  0
 22 23  1  0  0  0  0
 22 35  2  0  0  0  0
 23 24  2  0  0  0  0
 23 55  1  0  0  0  0
 24 25  1  0  0  0  0
 24 56  1  0  0  0  0
 25 26  1  0  0  0  0
 25 34  2  0  0  0  0
 26 27  1  0  0  0  0
 27 28  1  0  0  0  0
 27 57  1  0  0  0  0
 27 58  1  0  0  0  0
 28 29  1  0  0  0  0
 28 33  2  0  0  0  0
 29 30  2  0  0  0  0
 29 59  1  0  0  0  0
 30 31  1  0  0  0  0
 30 60  1  0  0  0  0
 31 32  2  0  0  0  0
 31 61  1  0  0  0  0
 32 33  1  0  0  0  0
 32 62  1  0  0  0  0
 33 63  1  0  0  0  0
 34 35  1  0  0  0  0
 34 64  1  0  0  0  0
 35 65  1  0  0  0  0
 36 37  1  0  0  0  0
 37 66  1  0  0  0  0
M  END
