
 OpenBabel03132512093D

 51 54  0  0  0  0  0  0  0  0999 V2000
    0.9993   -0.0012   -0.1000 C   0  0  0  0  0  0  0  0  0  0  0  0
    0.3959   -0.1983    1.5951 S   0  0  0  0  0  0  0  0  0  0  0  0
    0.9061    0.9597    2.4560 O   0  0  0  0  0  0  0  0  0  0  0  0
   -1.1345   -0.1983    1.5951 O   0  0  0  0  0  0  0  0  0  0  0  0
    0.9993   -1.7648    2.2719 C   0  0  0  0  0  0  0  0  0  0  0  0
    0.4926   -2.9148    1.4168 C   0  0  0  0  0  0  0  0  0  0  0  0
    0.9826   -2.7547    0.0402 N   0  0  0  0  0  0  0  0  0  0  0  0
    0.4926   -3.8669   -0.7868 C   0  0  0  0  0  0  0  0  0  0  0  0
   -1.0274   -3.8669   -0.7868 C   0  0  0  0  0  0  0  0  0  0  0  0
   -1.7306   -2.7715   -0.7837 N   0  0  0  0  0  0  0  0  0  0  0  0
   -3.0933   -3.0176   -0.8089 C   0  0  0  0  0  0  0  0  0  0  0  0
   -4.1379   -1.9138   -0.8384 C   0  0  0  0  0  0  0  0  0  0  0  0
   -4.1538   -0.9942   -1.9046 C   0  0  0  0  0  0  0  0  0  0  0  0
   -5.0839    0.0067   -1.9510 C   0  0  0  0  0  0  0  0  0  0  0  0
   -6.0632    0.1143   -0.9383 C   0  0  0  0  0  0  0  0  0  0  0  0
   -7.0115    1.1028   -1.0093 N   0  0  0  0  0  0  0  0  0  0  0  0
   -7.8825    1.1447   -0.0390 C   0  0  0  0  0  0  0  0  0  0  0  0
   -7.9410    0.3167    1.0492 N   0  0  0  0  0  0  0  0  0  0  0  0
   -7.0321   -0.6241    1.1374 C   0  0  0  0  0  0  0  0  0  0  0  0
   -7.0423   -1.5198    2.3029 N   0  0  0  0  0  0  0  0  0  0  0  0
   -8.0620   -1.3537    3.3487 C   0  0  0  0  0  0  0  0  0  0  0  0
   -9.4114   -1.4665    3.0399 C   0  0  0  0  0  0  0  0  0  0  0  0
  -10.3808   -1.3052    4.0083 C   0  0  0  0  0  0  0  0  0  0  0  0
   -9.9919   -1.0319    5.2945 C   0  0  0  0  0  0  0  0  0  0  0  0
  -10.9335   -0.8502    6.2429 F   0  0  0  0  0  0  0  0  0  0  0  0
   -8.6628   -0.9098    5.6311 C   0  0  0  0  0  0  0  0  0  0  0  0
   -8.2145   -0.5184    7.2559 Cl  0  0  0  0  0  0  0  0  0  0  0  0
   -7.6904   -1.0721    4.6623 C   0  0  0  0  0  0  0  0  0  0  0  0
   -6.0353   -0.8029    0.1363 C   0  0  0  0  0  0  0  0  0  0  0  0
   -5.0546   -1.8202    0.1695 C   0  0  0  0  0  0  0  0  0  0  0  0
   -3.4104   -4.3510   -0.8046 C   0  0  0  0  0  0  0  0  0  0  0  0
   -1.9620   -5.3228   -0.7909 S   0  0  0  0  0  0  0  0  0  0  0  0
    0.6426    0.9249   -0.5001 H   0  0  0  0  0  0  0  0  0  0  0  0
    0.6426   -0.8107   -0.7019 H   0  0  0  0  0  0  0  0  0  0  0  0
    2.0693   -0.0012   -0.1000 H   0  0  0  0  0  0  0  0  0  0  0  0
    2.0693   -1.7648    2.2719 H   0  0  0  0  0  0  0  0  0  0  0  0
    0.6426   -1.8813    3.2740 H   0  0  0  0  0  0  0  0  0  0  0  0
    0.8493   -3.8408    1.8170 H   0  0  0  0  0  0  0  0  0  0  0  0
   -0.5774   -2.9148    1.4168 H   0  0  0  0  0  0  0  0  0  0  0  0
    0.6426   -1.8719   -0.3412 H   0  0  0  0  0  0  0  0  0  0  0  0
    0.8493   -3.7504   -1.7888 H   0  0  0  0  0  0  0  0  0  0  0  0
    0.8493   -4.7930   -0.3866 H   0  0  0  0  0  0  0  0  0  0  0  0
   -3.4295   -1.0797   -2.6876 H   0  0  0  0  0  0  0  0  0  0  0  0
   -5.0702    0.7106   -2.7567 H   0  0  0  0  0  0  0  0  0  0  0  0
   -8.6306    1.9072   -0.1005 H   0  0  0  0  0  0  0  0  0  0  0  0
   -6.3419   -2.2566    2.3861 H   0  0  0  0  0  0  0  0  0  0  0  0
   -9.7043   -1.6822    2.0336 H   0  0  0  0  0  0  0  0  0  0  0  0
  -11.4179   -1.3919    3.7600 H   0  0  0  0  0  0  0  0  0  0  0  0
   -6.6558   -0.9819    4.9199 H   0  0  0  0  0  0  0  0  0  0  0  0
   -5.0305   -2.5155    0.9825 H   0  0  0  0  0  0  0  0  0  0  0  0
   -4.4067   -4.7411   -0.8090 H   0  0  0  0  0  0  0  0  0  0  0  0
  1  2  1  0  0  0  0
  1 33  1  0  0  0  0
  1 34  1  0  0  0  0
  1 35  1  0  0  0  0
  2  3  2  0  0  0  0
  2  4  2  0  0  0  0
  2  5  1  0  0  0  0
  5  6  1  0  0  0  0
  5 36  1  0  0  0  0
  5 37  1  0  0  0  0
  6  7  1  0  0  0  0
  6 38  1  0  0  0  0
  6 39  1  0  0  0  0
  7  8  1  0  0  0  0
  7 40  1  0  0  0  0
  8  9  1  0  0  0  0
  8 41  1  0  0  0  0
  8 42  1  0  0  0  0
  9 10  2  0  0  0  0
  9 32  1  0  0  0  0
 10 11  1  0  0  0  0
 11 12  1  0  0  0  0
 11 31  2  0  0  0  0
 12 13  1  0  0  0  0
 12 30  2  0  0  0  0
 13 14  2  0  0  0  0
 13 43  1  0  0  0  0
 14 15  1  0  0  0  0
 14 44  1  0  0  0  0
 15 16  1  0  0  0  0
 15 29  2  0  0  0  0
 16 17  2  0  0  0  0
 17 18  1  0  0  0  0
 17 45  1  0  0  0  0
 18 19  2  0  0  0  0
 19 20  1  0  0  0  0
 19 29  1  0  0  0  0
 20 21  1  0  0  0  0
 20 46  1  0  0  0  0
 21 22  1  0  0  0  0
 21 28  2  0  0  0  0
 22 23  2  0  0  0  0
 22 47  1  0  0  0  0
 23 24  1  0  0  0  0
 23 48  1  0  0  0  0
 24 25  1  0  0  0  0
 24 26  2  0  0  0  0
 26 27  1  0  0  0  0
 26 28  1  0  0  0  0
 28 49  1  0  0  0  0
 29 30  1  0  0  0  0
 30 50  1  0  0  0  0
 31 32  1  0  0  0  0
 31 51  1  0  0  0  0
M  END
