
 OpenBabel03132512093D

 48 51  0  0  0  0  0  0  0  0999 V2000
    0.9196    0.0577   -0.0143 O   0  0  0  0  0  0  0  0  0  0  0  0
    0.4463    1.3959   -0.0540 C   0  0  0  0  0  0  0  0  0  0  0  0
    0.9530    2.1489    1.1653 C   0  0  0  0  0  0  0  0  0  0  0  0
    2.4730    2.1489    1.1653 C   0  0  0  0  0  0  0  0  0  0  0  0
    2.9630    2.8060   -0.0550 N   0  0  0  0  0  0  0  0  0  0  0  0
    3.8081    4.0047    0.0445 C   0  0  0  0  0  0  0  0  0  0  0  0
    3.5003    5.0167   -0.7766 N   0  0  0  0  0  0  0  0  0  0  0  0
    4.2809    6.0970   -0.6273 C   0  0  0  0  0  0  0  0  0  0  0  0
    5.3158    6.1739    0.2498 C   0  0  0  0  0  0  0  0  0  0  0  0
    5.5560    5.0585    1.0175 C   0  0  0  0  0  0  0  0  0  0  0  0
    6.7294    5.0774    1.9835 C   0  0  0  0  0  0  0  0  0  0  0  0
    7.7563    4.2522    1.9652 C   0  0  0  0  0  0  0  0  0  0  0  0
    7.9461    3.1273    0.9607 C   0  0  0  0  0  0  0  0  0  0  0  0
    8.0247    3.4489   -0.4229 C   0  0  0  0  0  0  0  0  0  0  0  0
    7.7845    2.4474   -1.3778 C   0  0  0  0  0  0  0  0  0  0  0  0
    7.7635    1.1975   -1.0187 C   0  0  0  0  0  0  0  0  0  0  0  0
    7.5259    0.2508   -1.9221 F   0  0  0  0  0  0  0  0  0  0  0  0
    7.9908    0.8471    0.3188 C   0  0  0  0  0  0  0  0  0  0  0  0
    7.9301    1.8435    1.3233 C   0  0  0  0  0  0  0  0  0  0  0  0
    8.6005    4.5403    2.9449 N   0  0  0  0  0  0  0  0  0  0  0  0
    8.1231    5.5805    3.6266 N   0  0  0  0  0  0  0  0  0  0  0  0
    8.5576    6.3253    4.7431 C   0  0  0  0  0  0  0  0  0  0  0  0
    7.8034    7.3539    5.1875 C   0  0  0  0  0  0  0  0  0  0  0  0
    8.2789    8.1590    6.3859 C   0  0  0  0  0  0  0  0  0  0  0  0
    8.3983    7.3567    7.4399 F   0  0  0  0  0  0  0  0  0  0  0  0
    9.4586    8.7083    6.1111 F   0  0  0  0  0  0  0  0  0  0  0  0
    7.3960    9.1165    6.6553 F   0  0  0  0  0  0  0  0  0  0  0  0
    6.6295    7.6862    4.5887 C   0  0  0  0  0  0  0  0  0  0  0  0
    6.1656    7.0120    3.5129 C   0  0  0  0  0  0  0  0  0  0  0  0
    6.8960    5.9379    3.0007 C   0  0  0  0  0  0  0  0  0  0  0  0
    4.8056    3.9670    0.9494 N   0  0  0  0  0  0  0  0  0  0  0  0
    1.9196    0.0577   -0.0143 H   0  0  0  0  0  0  0  0  0  0  0  0
    0.8030    1.8742   -0.9422 H   0  0  0  0  0  0  0  0  0  0  0  0
   -0.6237    1.3959   -0.0540 H   0  0  0  0  0  0  0  0  0  0  0  0
    0.5963    3.1573    1.1354 H   0  0  0  0  0  0  0  0  0  0  0  0
    0.5963    1.6706    2.0535 H   0  0  0  0  0  0  0  0  0  0  0  0
    2.8296    2.6790    2.0236 H   0  0  0  0  0  0  0  0  0  0  0  0
    2.8296    1.1406    1.1952 H   0  0  0  0  0  0  0  0  0  0  0  0
    2.7166    2.4303   -0.9706 H   0  0  0  0  0  0  0  0  0  0  0  0
    4.0757    6.9521   -1.2370 H   0  0  0  0  0  0  0  0  0  0  0  0
    5.9134    7.0570    0.3385 H   0  0  0  0  0  0  0  0  0  0  0  0
    8.2646    4.4445   -0.7332 H   0  0  0  0  0  0  0  0  0  0  0  0
    7.6188    2.7127   -2.4011 H   0  0  0  0  0  0  0  0  0  0  0  0
    8.2089   -0.1674    0.5797 H   0  0  0  0  0  0  0  0  0  0  0  0
    7.8725    1.5711    2.3564 H   0  0  0  0  0  0  0  0  0  0  0  0
    9.4760    6.0777    5.2332 H   0  0  0  0  0  0  0  0  0  0  0  0
    6.0579    8.5023    4.9789 H   0  0  0  0  0  0  0  0  0  0  0  0
    5.2423    7.3004    3.0555 H   0  0  0  0  0  0  0  0  0  0  0  0
  1  2  1  0  0  0  0
  1 32  1  0  0  0  0
  2  3  1  0  0  0  0
  2 33  1  0  0  0  0
  2 34  1  0  0  0  0
  3  4  1  0  0  0  0
  3 35  1  0  0  0  0
  3 36  1  0  0  0  0
  4  5  1  0  0  0  0
  4 37  1  0  0  0  0
  4 38  1  0  0  0  0
  5  6  1  0  0  0  0
  5 39  1  0  0  0  0
  6  7  1  0  0  0  0
  6 31  2  0  0  0  0
  7  8  2  0  0  0  0
  8  9  1  0  0  0  0
  8 40  1  0  0  0  0
  9 10  2  0  0  0  0
  9 41  1  0  0  0  0
 10 11  1  0  0  0  0
 10 31  1  0  0  0  0
 11 12  1  0  0  0  0
 11 30  2  0  0  0  0
 12 13  1  0  0  0  0
 12 20  2  0  0  0  0
 13 14  1  0  0  0  0
 13 19  2  0  0  0  0
 14 15  2  0  0  0  0
 14 42  1  0  0  0  0
 15 16  1  0  0  0  0
 15 43  1  0  0  0  0
 16 17  1  0  0  0  0
 16 18  2  0  0  0  0
 18 19  1  0  0  0  0
 18 44  1  0  0  0  0
 19 45  1  0  0  0  0
 20 21  1  0  0  0  0
 21 22  1  0  0  0  0
 21 30  1  0  0  0  0
 22 23  2  0  0  0  0
 22 46  1  0  0  0  0
 23 24  1  0  0  0  0
 23 28  1  0  0  0  0
 24 25  1  0  0  0  0
 24 26  1  0  0  0  0
 24 27  1  0  0  0  0
 28 29  2  0  0  0  0
 28 47  1  0  0  0  0
 29 30  1  0  0  0  0
 29 48  1  0  0  0  0
M  END
