
 OpenBabel03132512093D

 43 47  0  0  0  0  0  0  0  0999 V2000
    0.9295    0.0482    0.0521 N   0  0  0  0  0  0  0  0  0  0  0  0
    2.1905    0.0482    0.0521 C   0  0  0  0  0  0  0  0  0  0  0  0
    3.7105    0.0482    0.0521 C   0  0  0  0  0  0  0  0  0  0  0  0
    4.3738    1.2344    0.0506 C   0  0  0  0  0  0  0  0  0  0  0  0
    5.7243    1.2925    0.0627 C   0  0  0  0  0  0  0  0  0  0  0  0
    6.4685    0.1112    0.0657 C   0  0  0  0  0  0  0  0  0  0  0  0
    7.7784   -0.1841    0.0716 C   0  0  0  0  0  0  0  0  0  0  0  0
    8.9171    0.8228    0.0766 C   0  0  0  0  0  0  0  0  0  0  0  0
    9.8564    0.8523   -0.9484 C   0  0  0  0  0  0  0  0  0  0  0  0
   10.5412    2.0727   -1.1422 C   0  0  0  0  0  0  0  0  0  0  0  0
   10.8296    2.8082    0.0060 N   0  0  0  0  0  0  0  0  0  0  0  0
   10.0893    2.6116    1.0764 C   0  0  0  0  0  0  0  0  0  0  0  0
   10.3713    3.3694    2.3040 N   0  0  0  0  0  0  0  0  0  0  0  0
   11.4749    4.3401    2.3314 C   0  0  0  0  0  0  0  0  0  0  0  0
   12.4877    4.2796    1.1860 C   0  0  0  0  0  0  0  0  0  0  0  0
   11.8606    5.6184    1.5830 C   0  0  0  0  0  0  0  0  0  0  0  0
    9.0369    1.6896    1.0592 N   0  0  0  0  0  0  0  0  0  0  0  0
    7.9086   -1.4951    0.0723 C   0  0  0  0  0  0  0  0  0  0  0  0
    9.2370   -2.2338    0.0803 C   0  0  0  0  0  0  0  0  0  0  0  0
   10.1577   -2.0474    1.1488 C   0  0  0  0  0  0  0  0  0  0  0  0
   11.4823   -2.4907    1.0021 C   0  0  0  0  0  0  0  0  0  0  0  0
   11.7949   -3.2969    0.0306 C   0  0  0  0  0  0  0  0  0  0  0  0
   13.0516   -3.7078   -0.1132 F   0  0  0  0  0  0  0  0  0  0  0  0
   10.8093   -3.7331   -0.8648 C   0  0  0  0  0  0  0  0  0  0  0  0
    9.5609   -3.0661   -0.9107 C   0  0  0  0  0  0  0  0  0  0  0  0
    6.7195   -2.0794    0.0650 N   0  0  0  0  0  0  0  0  0  0  0  0
    5.7804   -1.1346    0.0610 N   0  0  0  0  0  0  0  0  0  0  0  0
    4.3698   -1.1307    0.0536 C   0  0  0  0  0  0  0  0  0  0  0  0
    3.8128    2.1454    0.0395 H   0  0  0  0  0  0  0  0  0  0  0  0
    6.2210    2.2402    0.0701 H   0  0  0  0  0  0  0  0  0  0  0  0
   10.0503   -0.0049   -1.5587 H   0  0  0  0  0  0  0  0  0  0  0  0
   10.8230    2.4134   -2.1166 H   0  0  0  0  0  0  0  0  0  0  0  0
    9.8013    3.2216    3.1369 H   0  0  0  0  0  0  0  0  0  0  0  0
   11.3378    4.2265    3.3864 H   0  0  0  0  0  0  0  0  0  0  0  0
   13.4878    3.9147    1.0790 H   0  0  0  0  0  0  0  0  0  0  0  0
   12.2198    3.8174    0.2589 H   0  0  0  0  0  0  0  0  0  0  0  0
   11.3215    6.3845    1.0659 H   0  0  0  0  0  0  0  0  0  0  0  0
   12.4544    6.3643    2.0688 H   0  0  0  0  0  0  0  0  0  0  0  0
    9.8440   -1.5740    2.0556 H   0  0  0  0  0  0  0  0  0  0  0  0
   12.2345   -2.1650    1.6898 H   0  0  0  0  0  0  0  0  0  0  0  0
   10.9988   -4.5653   -1.5101 H   0  0  0  0  0  0  0  0  0  0  0  0
    8.8883   -3.2271   -1.7272 H   0  0  0  0  0  0  0  0  0  0  0  0
    3.8272   -2.0529    0.0491 H   0  0  0  0  0  0  0  0  0  0  0  0
  1  2  3  0  0  0  0
  2  3  1  0  0  0  0
  3  4  1  0  0  0  0
  3 28  2  0  0  0  0
  4  5  2  0  0  0  0
  4 29  1  0  0  0  0
  5  6  1  0  0  0  0
  5 30  1  0  0  0  0
  6  7  2  0  0  0  0
  6 27  1  0  0  0  0
  7  8  1  0  0  0  0
  7 18  1  0  0  0  0
  8  9  1  0  0  0  0
  8 17  2  0  0  0  0
  9 10  2  0  0  0  0
  9 31  1  0  0  0  0
 10 11  1  0  0  0  0
 10 32  1  0  0  0  0
 11 12  2  0  0  0  0
 12 13  1  0  0  0  0
 12 17  1  0  0  0  0
 13 14  1  0  0  0  0
 13 33  1  0  0  0  0
 14 15  1  0  0  0  0
 14 16  1  0  0  0  0
 14 34  1  0  0  0  0
 15 16  1  0  0  0  0
 15 35  1  0  0  0  0
 15 36  1  0  0  0  0
 16 37  1  0  0  0  0
 16 38  1  0  0  0  0
 18 19  1  0  0  0  0
 18 26  2  0  0  0  0
 19 20  1  0  0  0  0
 19 25  2  0  0  0  0
 20 21  2  0  0  0  0
 20 39  1  0  0  0  0
 21 22  1  0  0  0  0
 21 40  1  0  0  0  0
 22 23  1  0  0  0  0
 22 24  2  0  0  0  0
 24 25  1  0  0  0  0
 24 41  1  0  0  0  0
 25 42  1  0  0  0  0
 26 27  1  0  0  0  0
 27 28  1  0  0  0  0
 28 43  1  0  0  0  0
M  END
