
 OpenBabel03132512093D

 66 70  0  0  0  0  0  0  0  0999 V2000
    1.0188   -0.0948    0.0256 C   0  0  0  0  0  0  0  0  0  0  0  0
    0.4155   -1.4206    1.1000 S   0  0  0  0  0  0  0  0  0  0  0  0
    0.9256   -1.1944    2.5251 O   0  0  0  0  0  0  0  0  0  0  0  0
   -1.1150   -1.4206    1.1000 O   0  0  0  0  0  0  0  0  0  0  0  0
    1.0188   -3.0140    0.4890 C   0  0  0  0  0  0  0  0  0  0  0  0
    0.5122   -3.2387   -0.9264 C   0  0  0  0  0  0  0  0  0  0  0  0
    1.0022   -2.1619   -1.7989 N   0  0  0  0  0  0  0  0  0  0  0  0
    0.5122   -2.3792   -3.1677 C   0  0  0  0  0  0  0  0  0  0  0  0
   -1.0078   -2.3792   -3.1677 C   0  0  0  0  0  0  0  0  0  0  0  0
   -1.8221   -1.3142   -3.1712 C   0  0  0  0  0  0  0  0  0  0  0  0
   -3.1331   -1.6604   -3.1557 O   0  0  0  0  0  0  0  0  0  0  0  0
   -3.1408   -3.0343   -3.1630 C   0  0  0  0  0  0  0  0  0  0  0  0
   -4.3905   -3.8996   -3.1692 C   0  0  0  0  0  0  0  0  0  0  0  0
   -4.6191   -4.8058   -2.1160 C   0  0  0  0  0  0  0  0  0  0  0  0
   -5.7364   -5.5934   -2.1012 C   0  0  0  0  0  0  0  0  0  0  0  0
   -6.6944   -5.4873   -3.1343 C   0  0  0  0  0  0  0  0  0  0  0  0
   -7.8275   -6.2594   -3.0952 N   0  0  0  0  0  0  0  0  0  0  0  0
   -8.6669   -6.1117   -4.0828 C   0  0  0  0  0  0  0  0  0  0  0  0
   -8.5296   -5.2796   -5.1608 N   0  0  0  0  0  0  0  0  0  0  0  0
   -7.4444   -4.5459   -5.2185 C   0  0  0  0  0  0  0  0  0  0  0  0
   -7.2441   -3.6568   -6.3718 N   0  0  0  0  0  0  0  0  0  0  0  0
   -8.2530   -3.5993   -7.4395 C   0  0  0  0  0  0  0  0  0  0  0  0
   -7.8922   -3.9352   -8.7339 C   0  0  0  0  0  0  0  0  0  0  0  0
   -8.8485   -3.5669   -9.7095 C   0  0  0  0  0  0  0  0  0  0  0  0
  -10.1089   -3.2714   -9.4486 C   0  0  0  0  0  0  0  0  0  0  0  0
  -11.0927   -3.2211  -10.4713 O   0  0  0  0  0  0  0  0  0  0  0  0
  -12.4374   -2.8992  -10.1478 C   0  0  0  0  0  0  0  0  0  0  0  0
  -12.9812   -3.9234   -9.1652 C   0  0  0  0  0  0  0  0  0  0  0  0
  -13.4600   -3.5414   -7.9228 C   0  0  0  0  0  0  0  0  0  0  0  0
  -13.4735   -4.5853   -6.9678 C   0  0  0  0  0  0  0  0  0  0  0  0
  -13.4002   -5.8706   -7.2622 C   0  0  0  0  0  0  0  0  0  0  0  0
  -12.9860   -6.1821   -8.5274 C   0  0  0  0  0  0  0  0  0  0  0  0
  -12.8242   -5.2041   -9.4788 C   0  0  0  0  0  0  0  0  0  0  0  0
  -10.4156   -3.0165   -8.1408 C   0  0  0  0  0  0  0  0  0  0  0  0
   -9.4931   -3.2273   -7.1446 C   0  0  0  0  0  0  0  0  0  0  0  0
   -6.4544   -4.5858   -4.1957 C   0  0  0  0  0  0  0  0  0  0  0  0
   -5.2845   -3.7927   -4.1960 C   0  0  0  0  0  0  0  0  0  0  0  0
   -1.8684   -3.5047   -3.1640 C   0  0  0  0  0  0  0  0  0  0  0  0
    0.6622    0.8471    0.3868 H   0  0  0  0  0  0  0  0  0  0  0  0
    0.6622   -0.2530   -0.9707 H   0  0  0  0  0  0  0  0  0  0  0  0
    2.0888   -0.0948    0.0256 H   0  0  0  0  0  0  0  0  0  0  0  0
    2.0888   -3.0140    0.4890 H   0  0  0  0  0  0  0  0  0  0  0  0
    0.6622   -3.7978    1.1241 H   0  0  0  0  0  0  0  0  0  0  0  0
    0.8688   -4.1806   -1.2876 H   0  0  0  0  0  0  0  0  0  0  0  0
   -0.5578   -3.2387   -0.9264 H   0  0  0  0  0  0  0  0  0  0  0  0
    0.6622   -1.2640   -1.4546 H   0  0  0  0  0  0  0  0  0  0  0  0
    0.8688   -1.5954   -3.8029 H   0  0  0  0  0  0  0  0  0  0  0  0
    0.8688   -3.3211   -3.5289 H   0  0  0  0  0  0  0  0  0  0  0  0
   -1.4754   -0.3020   -3.1848 H   0  0  0  0  0  0  0  0  0  0  0  0
   -3.9101   -4.8788   -1.3179 H   0  0  0  0  0  0  0  0  0  0  0  0
   -5.8859   -6.2924   -1.3050 H   0  0  0  0  0  0  0  0  0  0  0  0
   -9.5574   -6.7039   -4.0463 H   0  0  0  0  0  0  0  0  0  0  0  0
   -6.4052   -3.0797   -6.4313 H   0  0  0  0  0  0  0  0  0  0  0  0
   -6.9736   -4.4284   -8.9742 H   0  0  0  0  0  0  0  0  0  0  0  0
   -8.5282   -3.5249  -10.7296 H   0  0  0  0  0  0  0  0  0  0  0  0
  -12.4745   -1.9256   -9.7053 H   0  0  0  0  0  0  0  0  0  0  0  0
  -13.0307   -2.9091  -11.0382 H   0  0  0  0  0  0  0  0  0  0  0  0
  -13.7898   -2.5470   -7.7051 H   0  0  0  0  0  0  0  0  0  0  0  0
  -13.5482   -4.3146   -5.9353 H   0  0  0  0  0  0  0  0  0  0  0  0
  -13.6516   -6.6276   -6.5489 H   0  0  0  0  0  0  0  0  0  0  0  0
  -12.7850   -7.2022   -8.7803 H   0  0  0  0  0  0  0  0  0  0  0  0
  -12.5694   -5.4769  -10.4816 H   0  0  0  0  0  0  0  0  0  0  0  0
  -11.3881   -2.6475   -7.8895 H   0  0  0  0  0  0  0  0  0  0  0  0
   -9.7765   -3.0904   -6.1219 H   0  0  0  0  0  0  0  0  0  0  0  0
   -5.0997   -3.1100   -4.9990 H   0  0  0  0  0  0  0  0  0  0  0  0
   -1.5706   -4.5324   -3.1623 H   0  0  0  0  0  0  0  0  0  0  0  0
  1  2  1  0  0  0  0
  1 39  1  0  0  0  0
  1 40  1  0  0  0  0
  1 41  1  0  0  0  0
  2  3  2  0  0  0  0
  2  4  2  0  0  0  0
  2  5  1  0  0  0  0
  5  6  1  0  0  0  0
  5 42  1  0  0  0  0
  5 43  1  0  0  0  0
  6  7  1  0  0  0  0
  6 44  1  0  0  0  0
  6 45  1  0  0  0  0
  7  8  1  0  0  0  0
  7 46  1  0  0  0  0
  8  9  1  0  0  0  0
  8 47  1  0  0  0  0
  8 48  1  0  0  0  0
  9 10  2  0  0  0  0
  9 38  1  0  0  0  0
 10 11  1  0  0  0  0
 10 49  1  0  0  0  0
 11 12  1  0  0  0  0
 12 13  1  0  0  0  0
 12 38  2  0  0  0  0
 13 14  1  0  0  0  0
 13 37  2  0  0  0  0
 14 15  2  0  0  0  0
 14 50  1  0  0  0  0
 15 16  1  0  0  0  0
 15 51  1  0  0  0  0
 16 17  1  0  0  0  0
 16 36  2  0  0  0  0
 17 18  2  0  0  0  0
 18 19  1  0  0  0  0
 18 52  1  0  0  0  0
 19 20  2  0  0  0  0
 20 21  1  0  0  0  0
 20 36  1  0  0  0  0
 21 22  1  0  0  0  0
 21 53  1  0  0  0  0
 22 23  1  0  0  0  0
 22 35  2  0  0  0  0
 23 24  2  0  0  0  0
 23 54  1  0  0  0  0
 24 25  1  0  0  0  0
 24 55  1  0  0  0  0
 25 26  1  0  0  0  0
 25 34  2  0  0  0  0
 26 27  1  0  0  0  0
 27 28  1  0  0  0  0
 27 56  1  0  0  0  0
 27 57  1  0  0  0  0
 28 29  1  0  0  0  0
 28 33  2  0  0  0  0
 29 30  2  0  0  0  0
 29 58  1  0  0  0  0
 30 31  1  0  0  0  0
 30 59  1  0  0  0  0
 31 32  2  0  0  0  0
 31 60  1  0  0  0  0
 32 33  1  0  0  0  0
 32 61  1  0  0  0  0
 33 62  1  0  0  0  0
 34 35  1  0  0  0  0
 34 63  1  0  0  0  0
 35 64  1  0  0  0  0
 36 37  1  0  0  0  0
 37 65  1  0  0  0  0
 38 66  1  0  0  0  0
M  END
