
 OpenBabel03132512093D

 69 73  0  0  0  0  0  0  0  0999 V2000
    1.0029   -0.0963    0.0268 C   0  0  0  0  0  0  0  0  0  0  0  0
    0.3996    1.6101    0.0138 S   0  0  0  0  0  0  0  0  0  0  0  0
    0.9098    2.3220   -1.2413 O   0  0  0  0  0  0  0  0  0  0  0  0
   -1.1308    1.6101    0.0138 O   0  0  0  0  0  0  0  0  0  0  0  0
    1.0029    2.4746    1.4851 C   0  0  0  0  0  0  0  0  0  0  0  0
    0.4963    1.7676    2.7316 C   0  0  0  0  0  0  0  0  0  0  0  0
    0.9863    0.3817    2.7422 N   0  0  0  0  0  0  0  0  0  0  0  0
    0.4963   -0.3021    3.9477 C   0  0  0  0  0  0  0  0  0  0  0  0
   -1.0237   -0.3021    3.9477 C   0  0  0  0  0  0  0  0  0  0  0  0
   -1.7674   -1.4174    3.9463 C   0  0  0  0  0  0  0  0  0  0  0  0
   -3.1109   -0.9679    3.9311 C   0  0  0  0  0  0  0  0  0  0  0  0
   -3.0782    0.3882    3.9271 C   0  0  0  0  0  0  0  0  0  0  0  0
   -4.3014    1.2901    3.9018 C   0  0  0  0  0  0  0  0  0  0  0  0
   -5.2461    1.2169    4.9435 C   0  0  0  0  0  0  0  0  0  0  0  0
   -6.3535    2.0185    4.9409 C   0  0  0  0  0  0  0  0  0  0  0  0
   -6.5506    2.9548    3.9013 C   0  0  0  0  0  0  0  0  0  0  0  0
   -7.6488    3.7765    3.9231 N   0  0  0  0  0  0  0  0  0  0  0  0
   -7.7687    4.6144    2.9304 C   0  0  0  0  0  0  0  0  0  0  0  0
   -6.9235    4.7498    1.8625 N   0  0  0  0  0  0  0  0  0  0  0  0
   -5.8770    3.9609    1.8213 C   0  0  0  0  0  0  0  0  0  0  0  0
   -4.9564    4.0550    0.6791 N   0  0  0  0  0  0  0  0  0  0  0  0
   -5.2156    5.0235   -0.3959 C   0  0  0  0  0  0  0  0  0  0  0  0
   -5.5103    4.4744   -1.6329 C   0  0  0  0  0  0  0  0  0  0  0  0
   -5.5902    5.4250   -2.6779 C   0  0  0  0  0  0  0  0  0  0  0  0
   -5.7405    6.7247   -2.4981 C   0  0  0  0  0  0  0  0  0  0  0  0
   -6.1302    7.5863   -3.5574 O   0  0  0  0  0  0  0  0  0  0  0  0
   -6.2805    8.9785   -3.3214 C   0  0  0  0  0  0  0  0  0  0  0  0
   -7.3436    9.2002   -2.2579 C   0  0  0  0  0  0  0  0  0  0  0  0
   -7.6832   10.4941   -1.8986 C   0  0  0  0  0  0  0  0  0  0  0  0
   -8.4411   10.5779   -0.7067 C   0  0  0  0  0  0  0  0  0  0  0  0
   -9.0898    9.5663   -0.1590 C   0  0  0  0  0  0  0  0  0  0  0  0
   -8.7574    8.3175   -0.6054 C   0  0  0  0  0  0  0  0  0  0  0  0
   -7.9198    8.1516   -1.6819 C   0  0  0  0  0  0  0  0  0  0  0  0
   -5.5009    7.1959   -1.2372 C   0  0  0  0  0  0  0  0  0  0  0  0
   -5.4732    8.6956   -0.9907 C   0  0  0  0  0  0  0  0  0  0  0  0
   -4.5192    9.2495   -1.7337 F   0  0  0  0  0  0  0  0  0  0  0  0
   -6.6507    9.2204   -1.3177 F   0  0  0  0  0  0  0  0  0  0  0  0
   -5.2255    8.9290    0.2950 F   0  0  0  0  0  0  0  0  0  0  0  0
   -5.2847    6.3334   -0.1897 C   0  0  0  0  0  0  0  0  0  0  0  0
   -5.6067    3.0157    2.8515 C   0  0  0  0  0  0  0  0  0  0  0  0
   -4.4772    2.1662    2.8690 C   0  0  0  0  0  0  0  0  0  0  0  0
   -1.7760    0.8262    3.9492 O   0  0  0  0  0  0  0  0  0  0  0  0
    0.6463   -0.6073   -0.8429 H   0  0  0  0  0  0  0  0  0  0  0  0
    0.6463   -0.5940    0.9043 H   0  0  0  0  0  0  0  0  0  0  0  0
    2.0729   -0.0963    0.0268 H   0  0  0  0  0  0  0  0  0  0  0  0
    2.0729    2.4746    1.4851 H   0  0  0  0  0  0  0  0  0  0  0  0
    0.6463    3.4834    1.4774 H   0  0  0  0  0  0  0  0  0  0  0  0
    0.8530    2.2787    3.6014 H   0  0  0  0  0  0  0  0  0  0  0  0
   -0.5737    1.7676    2.7316 H   0  0  0  0  0  0  0  0  0  0  0  0
    0.6463   -0.1055    1.9131 H   0  0  0  0  0  0  0  0  0  0  0  0
    0.8530   -1.3108    3.9554 H   0  0  0  0  0  0  0  0  0  0  0  0
    0.8530    0.2090    4.8175 H   0  0  0  0  0  0  0  0  0  0  0  0
   -1.4208   -2.4297    3.9547 H   0  0  0  0  0  0  0  0  0  0  0  0
   -3.9867   -1.5826    3.9242 H   0  0  0  0  0  0  0  0  0  0  0  0
   -5.0953    0.5259    5.7464 H   0  0  0  0  0  0  0  0  0  0  0  0
   -7.0732    1.9366    5.7285 H   0  0  0  0  0  0  0  0  0  0  0  0
   -8.6180    5.2648    2.9536 H   0  0  0  0  0  0  0  0  0  0  0  0
   -4.1379    3.4482    0.6325 H   0  0  0  0  0  0  0  0  0  0  0  0
   -5.6637    3.4263   -1.7845 H   0  0  0  0  0  0  0  0  0  0  0  0
   -5.5241    5.0659   -3.6836 H   0  0  0  0  0  0  0  0  0  0  0  0
   -5.3498    9.3859   -2.9858 H   0  0  0  0  0  0  0  0  0  0  0  0
   -6.5763    9.4640   -4.2279 H   0  0  0  0  0  0  0  0  0  0  0  0
   -7.3982   11.3524   -2.4704 H   0  0  0  0  0  0  0  0  0  0  0  0
   -8.4923   11.5268   -0.2150 H   0  0  0  0  0  0  0  0  0  0  0  0
   -9.8354    9.7160    0.5937 H   0  0  0  0  0  0  0  0  0  0  0  0
   -9.1551    7.4569   -0.1093 H   0  0  0  0  0  0  0  0  0  0  0  0
   -7.7302    7.1686   -2.0596 H   0  0  0  0  0  0  0  0  0  0  0  0
   -5.1709    6.7209    0.8012 H   0  0  0  0  0  0  0  0  0  0  0  0
   -3.7614    2.2094    2.0748 H   0  0  0  0  0  0  0  0  0  0  0  0
  1  2  1  0  0  0  0
  1 43  1  0  0  0  0
  1 44  1  0  0  0  0
  1 45  1  0  0  0  0
  2  3  2  0  0  0  0
  2  4  2  0  0  0  0
  2  5  1  0  0  0  0
  5  6  1  0  0  0  0
  5 46  1  0  0  0  0
  5 47  1  0  0  0  0
  6  7  1  0  0  0  0
  6 48  1  0  0  0  0
  6 49  1  0  0  0  0
  7  8  1  0  0  0  0
  7 50  1  0  0  0  0
  8  9  1  0  0  0  0
  8 51  1  0  0  0  0
  8 52  1  0  0  0  0
  9 10  2  0  0  0  0
  9 42  1  0  0  0  0
 10 11  1  0  0  0  0
 10 53  1  0  0  0  0
 11 12  2  0  0  0  0
 11 54  1  0  0  0  0
 12 13  1  0  0  0  0
 12 42  1  0  0  0  0
 13 14  1  0  0  0  0
 13 41  2  0  0  0  0
 14 15  2  0  0  0  0
 14 55  1  0  0  0  0
 15 16  1  0  0  0  0
 15 56  1  0  0  0  0
 16 17  1  0  0  0  0
 16 40  2  0  0  0  0
 17 18  2  0  0  0  0
 18 19  1  0  0  0  0
 18 57  1  0  0  0  0
 19 20  2  0  0  0  0
 20 21  1  0  0  0  0
 20 40  1  0  0  0  0
 21 22  1  0  0  0  0
 21 58  1  0  0  0  0
 22 23  1  0  0  0  0
 22 39  2  0  0  0  0
 23 24  2  0  0  0  0
 23 59  1  0  0  0  0
 24 25  1  0  0  0  0
 24 60  1  0  0  0  0
 25 26  1  0  0  0  0
 25 34  2  0  0  0  0
 26 27  1  0  0  0  0
 27 28  1  0  0  0  0
 27 61  1  0  0  0  0
 27 62  1  0  0  0  0
 28 29  1  0  0  0  0
 28 33  2  0  0  0  0
 29 30  2  0  0  0  0
 29 63  1  0  0  0  0
 30 31  1  0  0  0  0
 30 64  1  0  0  0  0
 31 32  2  0  0  0  0
 31 65  1  0  0  0  0
 32 33  1  0  0  0  0
 32 66  1  0  0  0  0
 33 67  1  0  0  0  0
 34 35  1  0  0  0  0
 34 39  1  0  0  0  0
 35 36  1  0  0  0  0
 35 37  1  0  0  0  0
 35 38  1  0  0  0  0
 39 68  1  0  0  0  0
 40 41  1  0  0  0  0
 41 69  1  0  0  0  0
M  END
