
 OpenBabel03132512093D

 33 35  0  0  0  0  0  0  0  0999 V2000
    0.9406   -0.0724   -0.0352 C   0  0  0  0  0  0  0  0  0  0  0  0
    0.4673   -1.1387   -0.8447 O   0  0  0  0  0  0  0  0  0  0  0  0
    0.8391   -2.3850   -0.4742 C   0  0  0  0  0  0  0  0  0  0  0  0
    0.5314   -3.4184   -1.3267 C   0  0  0  0  0  0  0  0  0  0  0  0
    0.9097   -4.7097   -1.0136 C   0  0  0  0  0  0  0  0  0  0  0  0
    0.5853   -5.8460   -1.9696 C   0  0  0  0  0  0  0  0  0  0  0  0
   -0.0543   -5.5988   -3.0924 N   0  0  0  0  0  0  0  0  0  0  0  0
   -0.4417   -4.2703   -3.4112 N   0  0  0  0  0  0  0  0  0  0  0  0
   -0.1280   -3.1714   -2.4866 C   0  0  0  0  0  0  0  0  0  0  0  0
    1.0577   -3.0438   -1.9199 N   0  0  0  0  0  0  0  0  0  0  0  0
    1.1918   -2.0962   -0.9544 C   0  0  0  0  0  0  0  0  0  0  0  0
    0.2860   -1.2403   -0.5020 N   0  0  0  0  0  0  0  0  0  0  0  0
   -0.8972   -1.3952   -1.1171 C   0  0  0  0  0  0  0  0  0  0  0  0
   -2.0112   -0.6584   -0.9066 N   0  0  0  0  0  0  0  0  0  0  0  0
   -3.0351   -1.0892   -1.7094 N   0  0  0  0  0  0  0  0  0  0  0  0
   -2.5574   -2.0851   -2.3945 C   0  0  0  0  0  0  0  0  0  0  0  0
   -1.1965   -2.3457   -2.0949 C   0  0  0  0  0  0  0  0  0  0  0  0
    1.5777   -4.9712    0.1581 C   0  0  0  0  0  0  0  0  0  0  0  0
    1.8653   -3.9480    1.0345 C   0  0  0  0  0  0  0  0  0  0  0  0
    1.4972   -2.6290    0.7490 C   0  0  0  0  0  0  0  0  0  0  0  0
    1.7761   -1.5741    1.6577 O   0  0  0  0  0  0  0  0  0  0  0  0
    0.5839   -0.1989    0.9657 H   0  0  0  0  0  0  0  0  0  0  0  0
    0.5839    0.8576   -0.4260 H   0  0  0  0  0  0  0  0  0  0  0  0
    2.0106   -0.0724   -0.0352 H   0  0  0  0  0  0  0  0  0  0  0  0
   -0.0015   -3.2225   -2.2336 H   0  0  0  0  0  0  0  0  0  0  0  0
    0.8772   -6.8470   -1.7294 H   0  0  0  0  0  0  0  0  0  0  0  0
   -0.9375   -4.0787   -4.2817 H   0  0  0  0  0  0  0  0  0  0  0  0
    2.1578   -2.0326   -0.4985 H   0  0  0  0  0  0  0  0  0  0  0  0
   -2.0802    0.1121   -0.2417 H   0  0  0  0  0  0  0  0  0  0  0  0
   -3.1277   -2.6458   -3.1053 H   0  0  0  0  0  0  0  0  0  0  0  0
    1.8754   -5.9723    0.3905 H   0  0  0  0  0  0  0  0  0  0  0  0
    2.3782   -4.1656    1.9480 H   0  0  0  0  0  0  0  0  0  0  0  0
    1.5048   -0.6377    1.4352 H   0  0  0  0  0  0  0  0  0  0  0  0
  1  2  1  0  0  0  0
  1 22  1  0  0  0  0
  1 23  1  0  0  0  0
  1 24  1  0  0  0  0
  2  3  1  0  0  0  0
  3  4  1  0  0  0  0
  3 20  2  0  0  0  0
  4  5  2  0  0  0  0
  4 25  1  0  0  0  0
  5  6  1  0  0  0  0
  5 18  1  0  0  0  0
  6  7  2  0  0  0  0
  6 26  1  0  0  0  0
  7  8  1  0  0  0  0
  8  9  1  0  0  0  0
  8 27  1  0  0  0  0
  9 10  1  0  0  0  0
  9 17  2  0  0  0  0
 10 11  2  0  0  0  0
 11 12  1  0  0  0  0
 11 28  1  0  0  0  0
 12 13  2  0  0  0  0
 13 14  1  0  0  0  0
 13 17  1  0  0  0  0
 14 15  1  0  0  0  0
 14 29  1  0  0  0  0
 15 16  2  0  0  0  0
 16 17  1  0  0  0  0
 16 30  1  0  0  0  0
 18 19  2  0  0  0  0
 18 31  1  0  0  0  0
 19 20  1  0  0  0  0
 19 32  1  0  0  0  0
 20 21  1  0  0  0  0
 21 33  1  0  0  0  0
M  END
