
 OpenBabel03132514253D

 49 52  0  0  0  0  0  0  0  0999 V2000
    1.0344    0.0654   -0.0674 N   0  0  0  0  0  0  0  0  0  0  0  0
    0.2994    1.0091   -0.9218 C   0  0  0  0  0  0  0  0  0  0  0  0
   -0.9715    1.0091   -0.9218 O   0  0  0  0  0  0  0  0  0  0  0  0
    1.0594    1.9850   -1.8053 C   0  0  0  0  0  0  0  0  0  0  0  0
    2.1030    1.4562   -2.4970 C   0  0  0  0  0  0  0  0  0  0  0  0
    2.9274    2.2291   -3.2387 C   0  0  0  0  0  0  0  0  0  0  0  0
    2.7192    3.6086   -3.2951 C   0  0  0  0  0  0  0  0  0  0  0  0
    3.3297    4.6352   -3.9087 C   0  0  0  0  0  0  0  0  0  0  0  0
    4.5527    4.5351   -4.8057 C   0  0  0  0  0  0  0  0  0  0  0  0
    5.7272    5.2079   -4.4868 C   0  0  0  0  0  0  0  0  0  0  0  0
    6.9203    4.6930   -5.0414 C   0  0  0  0  0  0  0  0  0  0  0  0
    6.8235    4.1551   -6.3235 N   0  0  0  0  0  0  0  0  0  0  0  0
    5.6482    3.7292   -6.7354 C   0  0  0  0  0  0  0  0  0  0  0  0
    5.5134    3.1605   -8.0842 N   0  0  0  0  0  0  0  0  0  0  0  0
    6.6873    3.0701   -8.9644 C   0  0  0  0  0  0  0  0  0  0  0  0
    6.9368    1.6155   -9.3285 C   0  0  0  0  0  0  0  0  0  0  0  0
    5.7197    1.0574  -10.0481 C   0  0  0  0  0  0  0  0  0  0  0  0
    5.4837    1.8075  -11.2304 O   0  0  0  0  0  0  0  0  0  0  0  0
    4.5256    3.8114   -5.9042 N   0  0  0  0  0  0  0  0  0  0  0  0
    2.6882    5.7439   -3.6007 C   0  0  0  0  0  0  0  0  0  0  0  0
    3.0654    7.1298   -4.0980 C   0  0  0  0  0  0  0  0  0  0  0  0
    3.0762    7.3969   -5.4954 C   0  0  0  0  0  0  0  0  0  0  0  0
    3.7936    8.5029   -5.9800 C   0  0  0  0  0  0  0  0  0  0  0  0
    4.2092    9.4202   -5.1570 C   0  0  0  0  0  0  0  0  0  0  0  0
    4.8971   10.4619   -5.6159 F   0  0  0  0  0  0  0  0  0  0  0  0
    3.9331    9.3125   -3.7874 C   0  0  0  0  0  0  0  0  0  0  0  0
    3.4880    8.0766   -3.2585 C   0  0  0  0  0  0  0  0  0  0  0  0
    1.6682    5.4817   -2.7968 N   0  0  0  0  0  0  0  0  0  0  0  0
    1.6320    4.1698   -2.5683 N   0  0  0  0  0  0  0  0  0  0  0  0
    0.8031    3.3111   -1.8163 C   0  0  0  0  0  0  0  0  0  0  0  0
    0.5244   -0.5894    0.5255 H   0  0  0  0  0  0  0  0  0  0  0  0
    2.0544    0.0654   -0.0674 H   0  0  0  0  0  0  0  0  0  0  0  0
    2.2764    0.4013   -2.4533 H   0  0  0  0  0  0  0  0  0  0  0  0
    3.7364    1.7854   -3.7805 H   0  0  0  0  0  0  0  0  0  0  0  0
    5.7274    6.0708   -3.8541 H   0  0  0  0  0  0  0  0  0  0  0  0
    7.8468    4.7149   -4.5067 H   0  0  0  0  0  0  0  0  0  0  0  0
    4.6054    2.8286   -8.4094 H   0  0  0  0  0  0  0  0  0  0  0  0
    6.5094    3.6353   -9.8554 H   0  0  0  0  0  0  0  0  0  0  0  0
    7.5440    3.4629   -8.4579 H   0  0  0  0  0  0  0  0  0  0  0  0
    7.7912    1.5497   -9.9692 H   0  0  0  0  0  0  0  0  0  0  0  0
    7.1146    1.0503   -8.4375 H   0  0  0  0  0  0  0  0  0  0  0  0
    5.8954    0.0335  -10.3043 H   0  0  0  0  0  0  0  0  0  0  0  0
    4.8653    1.1232   -9.4074 H   0  0  0  0  0  0  0  0  0  0  0  0
    5.3195    2.7644  -10.9909 H   0  0  0  0  0  0  0  0  0  0  0  0
    2.5428    6.7612   -6.1709 H   0  0  0  0  0  0  0  0  0  0  0  0
    3.9982    8.5908   -7.0265 H   0  0  0  0  0  0  0  0  0  0  0  0
    4.0578   10.1591   -3.1451 H   0  0  0  0  0  0  0  0  0  0  0  0
    3.4905    7.9048   -2.2023 H   0  0  0  0  0  0  0  0  0  0  0  0
   -0.0209    3.7065   -1.2598 H   0  0  0  0  0  0  0  0  0  0  0  0
  1  2  1  0  0  0  0
  1 31  1  0  0  0  0
  1 32  1  0  0  0  0
  2  3  2  0  0  0  0
  2  4  1  0  0  0  0
  4  5  1  0  0  0  0
  4 30  2  0  0  0  0
  5  6  2  0  0  0  0
  5 33  1  0  0  0  0
  6  7  1  0  0  0  0
  6 34  1  0  0  0  0
  7  8  2  0  0  0  0
  7 29  1  0  0  0  0
  8  9  1  0  0  0  0
  8 20  1  0  0  0  0
  9 10  1  0  0  0  0
  9 19  2  0  0  0  0
 10 11  2  0  0  0  0
 10 35  1  0  0  0  0
 11 12  1  0  0  0  0
 11 36  1  0  0  0  0
 12 13  2  0  0  0  0
 13 14  1  0  0  0  0
 13 19  1  0  0  0  0
 14 15  1  0  0  0  0
 14 37  1  0  0  0  0
 15 16  1  0  0  0  0
 15 38  1  0  0  0  0
 15 39  1  0  0  0  0
 16 17  1  0  0  0  0
 16 40  1  0  0  0  0
 16 41  1  0  0  0  0
 17 18  1  0  0  0  0
 17 42  1  0  0  0  0
 17 43  1  0  0  0  0
 18 44  1  0  0  0  0
 20 21  1  0  0  0  0
 20 28  2  0  0  0  0
 21 22  1  0  0  0  0
 21 27  2  0  0  0  0
 22 23  2  0  0  0  0
 22 45  1  0  0  0  0
 23 24  1  0  0  0  0
 23 46  1  0  0  0  0
 24 25  1  0  0  0  0
 24 26  2  0  0  0  0
 26 27  1  0  0  0  0
 26 47  1  0  0  0  0
 27 48  1  0  0  0  0
 28 29  1  0  0  0  0
 29 30  1  0  0  0  0
 30 49  1  0  0  0  0
M  END
