
 OpenBabel03132512093D

 56 59  0  0  0  0  0  0  0  0999 V2000
    0.9245    0.0358   -0.0550 C   0  0  0  0  0  0  0  0  0  0  0  0
    0.4179    1.3734    0.4594 C   0  0  0  0  0  0  0  0  0  0  0  0
    1.0212    2.7002   -0.6138 S   0  0  0  0  0  0  0  0  0  0  0  0
    0.5110    2.4753   -2.0390 O   0  0  0  0  0  0  0  0  0  0  0  0
    0.5110    4.0470   -0.0958 O   0  0  0  0  0  0  0  0  0  0  0  0
    2.8312    2.7002   -0.6138 C   0  0  0  0  0  0  0  0  0  0  0  0
    3.5107    1.4936   -0.6466 C   0  0  0  0  0  0  0  0  0  0  0  0
    4.8897    1.6040   -0.3499 C   0  0  0  0  0  0  0  0  0  0  0  0
    5.5768    2.7311   -0.3910 C   0  0  0  0  0  0  0  0  0  0  0  0
    6.9967    2.7419   -0.3984 O   0  0  0  0  0  0  0  0  0  0  0  0
    7.6971    3.9764   -0.4431 C   0  0  0  0  0  0  0  0  0  0  0  0
    4.8473    3.8870   -0.4259 C   0  0  0  0  0  0  0  0  0  0  0  0
    5.5331    5.1806   -0.2944 N   0  0  0  0  0  0  0  0  0  0  0  0
    6.9928    5.2250   -0.1268 C   0  0  0  0  0  0  0  0  0  0  0  0
    7.4472    5.7989    0.9945 N   0  0  0  0  0  0  0  0  0  0  0  0
    8.7832    5.7869    1.1107 C   0  0  0  0  0  0  0  0  0  0  0  0
    9.6246    5.2717    0.1764 C   0  0  0  0  0  0  0  0  0  0  0  0
    9.0420    4.7380   -0.9490 C   0  0  0  0  0  0  0  0  0  0  0  0
    9.9114    4.2059   -2.0082 N   0  0  0  0  0  0  0  0  0  0  0  0
    9.3199    3.6287   -3.2239 C   0  0  0  0  0  0  0  0  0  0  0  0
   11.3724    4.2511   -1.8517 C   0  0  0  0  0  0  0  0  0  0  0  0
   12.1334    4.9493   -2.7747 C   0  0  0  0  0  0  0  0  0  0  0  0
   13.5205    4.6824   -2.6933 C   0  0  0  0  0  0  0  0  0  0  0  0
   14.1173    4.1311   -1.6521 C   0  0  0  0  0  0  0  0  0  0  0  0
   15.5471    4.1758   -1.4855 C   0  0  0  0  0  0  0  0  0  0  0  0
   16.4119    4.8711   -2.5242 C   0  0  0  0  0  0  0  0  0  0  0  0
   16.1374    3.5818   -0.3725 N   0  0  0  0  0  0  0  0  0  0  0  0
   13.8709    2.7708    0.2909 N   0  0  0  0  0  0  0  0  0  0  0  0
   13.3047    3.5158   -0.7408 C   0  0  0  0  0  0  0  0  0  0  0  0
   11.9375    3.6217   -0.8281 C   0  0  0  0  0  0  0  0  0  0  0  0
    7.7275    4.6837   -1.1180 N   0  0  0  0  0  0  0  0  0  0  0  0
    3.4826    3.8569   -0.5822 C   0  0  0  0  0  0  0  0  0  0  0  0
    0.5679   -0.1214   -1.0515 H   0  0  0  0  0  0  0  0  0  0  0  0
    0.5679   -0.7486    0.5794 H   0  0  0  0  0  0  0  0  0  0  0  0
    1.9945    0.0358   -0.0550 H   0  0  0  0  0  0  0  0  0  0  0  0
   -0.6521    1.3733    0.4594 H   0  0  0  0  0  0  0  0  0  0  0  0
    0.7745    1.5306    1.4558 H   0  0  0  0  0  0  0  0  0  0  0  0
    3.0357    0.5625   -0.8756 H   0  0  0  0  0  0  0  0  0  0  0  0
    5.4123    0.7123   -0.0730 H   0  0  0  0  0  0  0  0  0  0  0  0
    7.4299    4.5060   -1.3336 H   0  0  0  0  0  0  0  0  0  0  0  0
    7.4386    4.5643    0.4127 H   0  0  0  0  0  0  0  0  0  0  0  0
    8.7506    3.7890   -0.4420 H   0  0  0  0  0  0  0  0  0  0  0  0
    4.9960    6.0474   -0.3196 H   0  0  0  0  0  0  0  0  0  0  0  0
    9.2135    6.2095    1.9945 H   0  0  0  0  0  0  0  0  0  0  0  0
   10.6863    5.2808    0.3096 H   0  0  0  0  0  0  0  0  0  0  0  0
    9.6546    4.1780   -4.0789 H   0  0  0  0  0  0  0  0  0  0  0  0
    9.6215    2.6062   -3.3164 H   0  0  0  0  0  0  0  0  0  0  0  0
    8.2531    3.6815   -3.1612 H   0  0  0  0  0  0  0  0  0  0  0  0
   11.7106    5.6289   -3.4848 H   0  0  0  0  0  0  0  0  0  0  0  0
   14.1282    4.9454   -3.5337 H   0  0  0  0  0  0  0  0  0  0  0  0
   16.9527    5.6699   -2.0612 H   0  0  0  0  0  0  0  0  0  0  0  0
   17.1022    4.1682   -2.9419 H   0  0  0  0  0  0  0  0  0  0  0  0
   15.7898    5.2646   -3.3007 H   0  0  0  0  0  0  0  0  0  0  0  0
   17.1501    3.6134   -0.2545 H   0  0  0  0  0  0  0  0  0  0  0  0
   11.3227    3.1931   -0.0644 H   0  0  0  0  0  0  0  0  0  0  0  0
    2.9397    4.7738   -0.6794 H   0  0  0  0  0  0  0  0  0  0  0  0
  1  2  1  0  0  0  0
  1 33  1  0  0  0  0
  1 34  1  0  0  0  0
  1 35  1  0  0  0  0
  2  3  1  0  0  0  0
  2 36  1  0  0  0  0
  2 37  1  0  0  0  0
  3  4  2  0  0  0  0
  3  5  2  0  0  0  0
  3  6  1  0  0  0  0
  6  7  1  0  0  0  0
  6 32  2  0  0  0  0
  7  8  2  0  0  0  0
  7 38  1  0  0  0  0
  8  9  1  0  0  0  0
  8 39  1  0  0  0  0
  9 10  1  0  0  0  0
  9 12  2  0  0  0  0
 10 11  1  0  0  0  0
 11 40  1  0  0  0  0
 11 41  1  0  0  0  0
 11 42  1  0  0  0  0
 12 13  1  0  0  0  0
 12 32  1  0  0  0  0
 13 14  1  0  0  0  0
 13 43  1  0  0  0  0
 14 15  1  0  0  0  0
 14 31  2  0  0  0  0
 15 16  2  0  0  0  0
 16 17  1  0  0  0  0
 16 44  1  0  0  0  0
 17 18  2  0  0  0  0
 17 45  1  0  0  0  0
 18 19  1  0  0  0  0
 18 31  1  0  0  0  0
 19 20  1  0  0  0  0
 19 21  1  0  0  0  0
 20 46  1  0  0  0  0
 20 47  1  0  0  0  0
 20 48  1  0  0  0  0
 21 22  1  0  0  0  0
 21 30  2  0  0  0  0
 22 23  2  0  0  0  0
 22 49  1  0  0  0  0
 23 24  1  0  0  0  0
 23 50  1  0  0  0  0
 24 25  2  0  0  0  0
 24 29  1  0  0  0  0
 25 26  1  0  0  0  0
 25 27  1  0  0  0  0
 26 51  1  0  0  0  0
 26 52  1  0  0  0  0
 26 53  1  0  0  0  0
 27 28  1  0  0  0  0
 27 54  1  0  0  0  0
 28 29  2  0  0  0  0
 29 30  1  0  0  0  0
 30 55  1  0  0  0  0
 32 56  1  0  0  0  0
M  END
