
 OpenBabel03132512093D

 41 44  0  0  0  0  0  0  0  0999 V2000
    0.9350   -0.0748    0.0136 C   0  0  0  0  0  0  0  0  0  0  0  0
    0.4617    1.2615    0.0959 O   0  0  0  0  0  0  0  0  0  0  0  0
    0.8047    2.0687    1.2126 C   0  0  0  0  0  0  0  0  0  0  0  0
   -0.1278    2.9556    1.7249 C   0  0  0  0  0  0  0  0  0  0  0  0
    0.4379    4.0081    2.4826 C   0  0  0  0  0  0  0  0  0  0  0  0
    1.6594    3.9970    2.9846 C   0  0  0  0  0  0  0  0  0  0  0  0
    2.0927    4.9811    4.0589 C   0  0  0  0  0  0  0  0  0  0  0  0
    3.1503    5.8030    3.7226 C   0  0  0  0  0  0  0  0  0  0  0  0
    3.5198    6.8359    4.5878 C   0  0  0  0  0  0  0  0  0  0  0  0
    4.6898    7.7513    4.2661 C   0  0  0  0  0  0  0  0  0  0  0  0
    5.8723    7.9425    5.0148 C   0  0  0  0  0  0  0  0  0  0  0  0
    6.6751    8.8070    4.4167 N   0  0  0  0  0  0  0  0  0  0  0  0
    6.0045    9.1791    3.2857 N   0  0  0  0  0  0  0  0  0  0  0  0
    4.8045    8.5451    3.1833 C   0  0  0  0  0  0  0  0  0  0  0  0
    3.7891    8.7022    2.0632 C   0  0  0  0  0  0  0  0  0  0  0  0
    2.5222    9.1561    2.3733 C   0  0  0  0  0  0  0  0  0  0  0  0
    1.5684    9.2770    1.3597 C   0  0  0  0  0  0  0  0  0  0  0  0
    1.9561    8.9461    0.0674 C   0  0  0  0  0  0  0  0  0  0  0  0
    3.2467    8.5251   -0.1575 C   0  0  0  0  0  0  0  0  0  0  0  0
    4.1570    8.3871    0.8114 N   0  0  0  0  0  0  0  0  0  0  0  0
    2.7799    6.9965    5.7525 C   0  0  0  0  0  0  0  0  0  0  0  0
    1.7253    6.1475    5.9984 C   0  0  0  0  0  0  0  0  0  0  0  0
    1.3807    5.1444    5.1849 N   0  0  0  0  0  0  0  0  0  0  0  0
    2.5132    3.0527    2.4859 C   0  0  0  0  0  0  0  0  0  0  0  0
    2.0628    2.0701    1.6376 C   0  0  0  0  0  0  0  0  0  0  0  0
    0.5784   -0.5245   -0.8895 H   0  0  0  0  0  0  0  0  0  0  0  0
    0.5784   -0.6320    0.8545 H   0  0  0  0  0  0  0  0  0  0  0  0
    2.0050   -0.0748    0.0136 H   0  0  0  0  0  0  0  0  0  0  0  0
   -1.1805    2.8540    1.5623 H   0  0  0  0  0  0  0  0  0  0  0  0
   -0.1659    4.8731    2.6614 H   0  0  0  0  0  0  0  0  0  0  0  0
    3.6823    5.6501    2.8070 H   0  0  0  0  0  0  0  0  0  0  0  0
    6.0895    7.4536    5.9415 H   0  0  0  0  0  0  0  0  0  0  0  0
    6.3592    9.8488    2.6029 H   0  0  0  0  0  0  0  0  0  0  0  0
    2.2732    9.4131    3.3817 H   0  0  0  0  0  0  0  0  0  0  0  0
    0.5746    9.6125    1.5712 H   0  0  0  0  0  0  0  0  0  0  0  0
    1.2603    9.0176   -0.7423 H   0  0  0  0  0  0  0  0  0  0  0  0
    3.5370    8.2959   -1.1615 H   0  0  0  0  0  0  0  0  0  0  0  0
    3.0268    7.7702    6.4491 H   0  0  0  0  0  0  0  0  0  0  0  0
    1.1506    6.2982    6.8882 H   0  0  0  0  0  0  0  0  0  0  0  0
    3.5472    3.0792    2.7602 H   0  0  0  0  0  0  0  0  0  0  0  0
    2.7317    1.2992    1.3166 H   0  0  0  0  0  0  0  0  0  0  0  0
  1  2  1  0  0  0  0
  1 26  1  0  0  0  0
  1 27  1  0  0  0  0
  1 28  1  0  0  0  0
  2  3  1  0  0  0  0
  3  4  1  0  0  0  0
  3 25  2  0  0  0  0
  4  5  2  0  0  0  0
  4 29  1  0  0  0  0
  5  6  1  0  0  0  0
  5 30  1  0  0  0  0
  6  7  1  0  0  0  0
  6 24  2  0  0  0  0
  7  8  1  0  0  0  0
  7 23  2  0  0  0  0
  8  9  2  0  0  0  0
  8 31  1  0  0  0  0
  9 10  1  0  0  0  0
  9 21  1  0  0  0  0
 10 11  1  0  0  0  0
 10 14  2  0  0  0  0
 11 12  2  0  0  0  0
 11 32  1  0  0  0  0
 12 13  1  0  0  0  0
 13 14  1  0  0  0  0
 13 33  1  0  0  0  0
 14 15  1  0  0  0  0
 15 16  1  0  0  0  0
 15 20  2  0  0  0  0
 16 17  2  0  0  0  0
 16 34  1  0  0  0  0
 17 18  1  0  0  0  0
 17 35  1  0  0  0  0
 18 19  2  0  0  0  0
 18 36  1  0  0  0  0
 19 20  1  0  0  0  0
 19 37  1  0  0  0  0
 21 22  2  0  0  0  0
 21 38  1  0  0  0  0
 22 23  1  0  0  0  0
 22 39  1  0  0  0  0
 24 25  1  0  0  0  0
 24 40  1  0  0  0  0
 25 41  1  0  0  0  0
M  END
