
 OpenBabel03132512093D

 51 54  0  0  0  0  0  0  0  0999 V2000
    0.9925   -0.0818   -0.0570 C   0  0  0  0  0  0  0  0  0  0  0  0
    0.4859    0.3015   -1.4379 C   0  0  0  0  0  0  0  0  0  0  0  0
    0.4953    1.5454   -1.9434 C   0  0  0  0  0  0  0  0  0  0  0  0
    0.8418    2.8061   -1.4534 C   0  0  0  0  0  0  0  0  0  0  0  0
    0.7351    3.8896   -2.2545 C   0  0  0  0  0  0  0  0  0  0  0  0
    0.2857    3.7902   -3.5332 C   0  0  0  0  0  0  0  0  0  0  0  0
    0.1785    5.0060   -4.3525 N   0  0  0  0  0  0  0  0  0  0  0  0
   -0.3056    4.9185   -5.7378 C   0  0  0  0  0  0  0  0  0  0  0  0
    0.5553    6.3093   -3.7866 C   0  0  0  0  0  0  0  0  0  0  0  0
   -0.4075    7.2921   -3.5836 C   0  0  0  0  0  0  0  0  0  0  0  0
   -0.1737    8.1955   -2.5229 C   0  0  0  0  0  0  0  0  0  0  0  0
    1.1549    8.5500   -2.2952 N   0  0  0  0  0  0  0  0  0  0  0  0
    2.0995    7.7301   -2.7049 C   0  0  0  0  0  0  0  0  0  0  0  0
    3.5103    8.0783   -2.4828 N   0  0  0  0  0  0  0  0  0  0  0  0
    3.8593    9.3360   -1.8066 C   0  0  0  0  0  0  0  0  0  0  0  0
    3.3934    9.4860   -0.5655 C   0  0  0  0  0  0  0  0  0  0  0  0
    3.7866   10.6311    0.1816 C   0  0  0  0  0  0  0  0  0  0  0  0
    4.3956   11.7099   -0.4803 C   0  0  0  0  0  0  0  0  0  0  0  0
    4.8425   11.5610   -1.6925 C   0  0  0  0  0  0  0  0  0  0  0  0
    5.6146   12.9561   -2.5489 S   0  0  0  0  0  0  0  0  0  0  0  0
    4.4583   14.2764   -2.6805 N   0  0  0  0  0  0  0  0  0  0  0  0
    6.8379   13.4262   -1.7584 O   0  0  0  0  0  0  0  0  0  0  0  0
    6.0498   12.5176   -3.9492 O   0  0  0  0  0  0  0  0  0  0  0  0
    4.7270   10.3218   -2.3365 C   0  0  0  0  0  0  0  0  0  0  0  0
    1.7764    6.5310   -3.3494 N   0  0  0  0  0  0  0  0  0  0  0  0
   -0.0648    2.6010   -4.0692 C   0  0  0  0  0  0  0  0  0  0  0  0
    0.0298    1.4332   -3.2836 C   0  0  0  0  0  0  0  0  0  0  0  0
   -0.2238    0.1407   -3.4834 N   0  0  0  0  0  0  0  0  0  0  0  0
    0.0530   -0.5225   -2.3703 N   0  0  0  0  0  0  0  0  0  0  0  0
   -0.1013   -1.9743   -2.1996 C   0  0  0  0  0  0  0  0  0  0  0  0
    0.6359   -1.0586    0.1954 H   0  0  0  0  0  0  0  0  0  0  0  0
    0.6359    0.6251    0.6627 H   0  0  0  0  0  0  0  0  0  0  0  0
    2.0625   -0.0818   -0.0570 H   0  0  0  0  0  0  0  0  0  0  0  0
    1.1905    2.9141   -0.4475 H   0  0  0  0  0  0  0  0  0  0  0  0
    1.0116    4.8499   -1.8721 H   0  0  0  0  0  0  0  0  0  0  0  0
   -1.1893    5.5121   -5.8449 H   0  0  0  0  0  0  0  0  0  0  0  0
    0.4501    5.2805   -6.4032 H   0  0  0  0  0  0  0  0  0  0  0  0
   -0.5298    3.8992   -5.9735 H   0  0  0  0  0  0  0  0  0  0  0  0
   -1.2802    7.3604   -4.1988 H   0  0  0  0  0  0  0  0  0  0  0  0
   -0.9723    8.5860   -1.9273 H   0  0  0  0  0  0  0  0  0  0  0  0
    4.2471    7.4472   -2.7979 H   0  0  0  0  0  0  0  0  0  0  0  0
    2.7355    8.7576   -0.1394 H   0  0  0  0  0  0  0  0  0  0  0  0
    3.6199   10.6702    1.2378 H   0  0  0  0  0  0  0  0  0  0  0  0
    4.4918   12.6545    0.0130 H   0  0  0  0  0  0  0  0  0  0  0  0
    4.8934   15.0626   -3.1632 H   0  0  0  0  0  0  0  0  0  0  0  0
    3.6430   13.9631   -3.2074 H   0  0  0  0  0  0  0  0  0  0  0  0
    5.2911   10.1216   -3.2234 H   0  0  0  0  0  0  0  0  0  0  0  0
   -0.4109    2.5453   -5.0802 H   0  0  0  0  0  0  0  0  0  0  0  0
   -1.1242   -2.2454   -2.3580 H   0  0  0  0  0  0  0  0  0  0  0  0
    0.5168   -2.4845   -2.9085 H   0  0  0  0  0  0  0  0  0  0  0  0
    0.1912   -2.2500   -1.2079 H   0  0  0  0  0  0  0  0  0  0  0  0
  1  2  1  0  0  0  0
  1 31  1  0  0  0  0
  1 32  1  0  0  0  0
  1 33  1  0  0  0  0
  2  3  2  0  0  0  0
  2 29  1  0  0  0  0
  3  4  1  0  0  0  0
  3 27  1  0  0  0  0
  4  5  2  0  0  0  0
  4 34  1  0  0  0  0
  5  6  1  0  0  0  0
  5 35  1  0  0  0  0
  6  7  1  0  0  0  0
  6 26  2  0  0  0  0
  7  8  1  0  0  0  0
  7  9  1  0  0  0  0
  8 36  1  0  0  0  0
  8 37  1  0  0  0  0
  8 38  1  0  0  0  0
  9 10  1  0  0  0  0
  9 25  2  0  0  0  0
 10 11  2  0  0  0  0
 10 39  1  0  0  0  0
 11 12  1  0  0  0  0
 11 40  1  0  0  0  0
 12 13  2  0  0  0  0
 13 14  1  0  0  0  0
 13 25  1  0  0  0  0
 14 15  1  0  0  0  0
 14 41  1  0  0  0  0
 15 16  1  0  0  0  0
 15 24  2  0  0  0  0
 16 17  2  0  0  0  0
 16 42  1  0  0  0  0
 17 18  1  0  0  0  0
 17 43  1  0  0  0  0
 18 19  2  0  0  0  0
 18 44  1  0  0  0  0
 19 20  1  0  0  0  0
 19 24  1  0  0  0  0
 20 21  1  0  0  0  0
 20 22  2  0  0  0  0
 20 23  2  0  0  0  0
 21 45  1  0  0  0  0
 21 46  1  0  0  0  0
 24 47  1  0  0  0  0
 26 27  1  0  0  0  0
 26 48  1  0  0  0  0
 27 28  2  0  0  0  0
 28 29  1  0  0  0  0
 29 30  1  0  0  0  0
 30 49  1  0  0  0  0
 30 50  1  0  0  0  0
 30 51  1  0  0  0  0
M  END
