
 OpenBabel03132514253D

 34 37  0  0  0  0  0  0  0  0999 V2000
    2.1260    0.0590    0.0070 N   0  0  0  0  0  0  0  0  0  0  0  0
    0.8100   -0.1810   -0.0010 C   0  0  0  0  0  0  0  0  0  0  0  0
    0.2760   -1.3730   -0.0060 N   0  0  0  0  0  0  0  0  0  0  0  0
   -1.1070   -1.2770   -0.0020 C   0  0  0  0  0  0  0  0  0  0  0  0
   -2.0031   -2.5047   -0.0138 C   0  0  0  0  0  0  0  0  0  0  0  0
   -1.9213   -3.4269    1.0172 C   0  0  0  0  0  0  0  0  0  0  0  0
   -2.7445   -4.5473    1.0262 C   0  0  0  0  0  0  0  0  0  0  0  0
   -3.6410   -4.7568   -0.0165 C   0  0  0  0  0  0  0  0  0  0  0  0
   -3.6860   -3.8403   -1.0537 C   0  0  0  0  0  0  0  0  0  0  0  0
   -4.7972   -4.1205   -2.3591 Cl  0  0  0  0  0  0  0  0  0  0  0  0
   -2.9028   -2.6957   -1.0617 C   0  0  0  0  0  0  0  0  0  0  0  0
   -1.6050   -0.0270    0.0130 C   0  0  0  0  0  0  0  0  0  0  0  0
   -3.0861    0.3135    0.0411 C   0  0  0  0  0  0  0  0  0  0  0  0
   -3.8379   -0.1535    1.1312 C   0  0  0  0  0  0  0  0  0  0  0  0
   -5.1807    0.1057    1.2010 C   0  0  0  0  0  0  0  0  0  0  0  0
   -5.7324    0.8697    0.1404 C   0  0  0  0  0  0  0  0  0  0  0  0
   -7.0702    1.1605    0.1756 N   0  0  0  0  0  0  0  0  0  0  0  0
   -7.5519    1.8655   -0.8142 C   0  0  0  0  0  0  0  0  0  0  0  0
   -6.7909    2.3469   -1.8823 C   0  0  0  0  0  0  0  0  0  0  0  0
   -5.4702    2.0676   -1.9180 C   0  0  0  0  0  0  0  0  0  0  0  0
   -4.8913    1.3039   -0.8980 C   0  0  0  0  0  0  0  0  0  0  0  0
   -3.5605    1.0166   -0.9482 N   0  0  0  0  0  0  0  0  0  0  0  0
   -0.3370    1.1300   -0.0040 S   0  0  0  0  0  0  0  0  0  0  0  0
    2.4692    1.0195    0.0114 H   0  0  0  0  0  0  0  0  0  0  0  0
    2.7862   -0.7185    0.0087 H   0  0  0  0  0  0  0  0  0  0  0  0
   -1.2202   -3.2758    1.8113 H   0  0  0  0  0  0  0  0  0  0  0  0
   -2.6884   -5.2471    1.8337 H   0  0  0  0  0  0  0  0  0  0  0  0
   -4.2849   -5.6114   -0.0172 H   0  0  0  0  0  0  0  0  0  0  0  0
   -2.9868   -1.9783   -1.8511 H   0  0  0  0  0  0  0  0  0  0  0  0
   -3.3608   -0.7128    1.9086 H   0  0  0  0  0  0  0  0  0  0  0  0
   -5.7817   -0.2491    2.0120 H   0  0  0  0  0  0  0  0  0  0  0  0
   -8.5983    2.0887   -0.8058 H   0  0  0  0  0  0  0  0  0  0  0  0
   -7.2462    2.9265   -2.6580 H   0  0  0  0  0  0  0  0  0  0  0  0
   -4.8674    2.4294   -2.7246 H   0  0  0  0  0  0  0  0  0  0  0  0
  1  2  1  0  0  0  0
  1 24  1  0  0  0  0
  1 25  1  0  0  0  0
  2  3  2  0  0  0  0
  2 23  1  0  0  0  0
  3  4  1  0  0  0  0
  4  5  1  0  0  0  0
  4 12  2  0  0  0  0
  5  6  1  0  0  0  0
  5 11  2  0  0  0  0
  6  7  2  0  0  0  0
  6 26  1  0  0  0  0
  7  8  1  0  0  0  0
  7 27  1  0  0  0  0
  8  9  2  0  0  0  0
  8 28  1  0  0  0  0
  9 10  1  0  0  0  0
  9 11  1  0  0  0  0
 11 29  1  0  0  0  0
 12 13  1  0  0  0  0
 12 23  1  0  0  0  0
 13 14  1  0  0  0  0
 13 22  2  0  0  0  0
 14 15  2  0  0  0  0
 14 30  1  0  0  0  0
 15 16  1  0  0  0  0
 15 31  1  0  0  0  0
 16 17  1  0  0  0  0
 16 21  2  0  0  0  0
 17 18  2  0  0  0  0
 18 19  1  0  0  0  0
 18 32  1  0  0  0  0
 19 20  2  0  0  0  0
 19 33  1  0  0  0  0
 20 21  1  0  0  0  0
 20 34  1  0  0  0  0
 21 22  1  0  0  0  0
M  END
