
 OpenBabel03132514253D

 55 59  0  0  0  0  0  0  0  0999 V2000
    1.0934    0.0014   -0.0358 O   0  0  0  0  0  0  0  0  0  0  0  0
    2.3643    0.0014   -0.0358 C   0  0  0  0  0  0  0  0  0  0  0  0
    3.0993   -1.2669   -0.1458 N   0  0  0  0  0  0  0  0  0  0  0  0
    4.5693   -1.2669   -0.1458 C   0  0  0  0  0  0  0  0  0  0  0  0
    5.0648   -0.6042    1.1373 C   0  0  0  0  0  0  0  0  0  0  0  0
    6.5860   -0.4233    1.0730 C   0  0  0  0  0  0  0  0  0  0  0  0
    6.9684    0.2965   -0.1169 O   0  0  0  0  0  0  0  0  0  0  0  0
    6.5610   -0.3728   -1.3274 C   0  0  0  0  0  0  0  0  0  0  0  0
    5.0634   -0.5307   -1.3836 C   0  0  0  0  0  0  0  0  0  0  0  0
    3.1243    1.3128    0.0781 C   0  0  0  0  0  0  0  0  0  0  0  0
    4.2012    1.5420   -0.7624 C   0  0  0  0  0  0  0  0  0  0  0  0
    5.0019    2.6443   -0.3805 C   0  0  0  0  0  0  0  0  0  0  0  0
    4.6172    3.5983    0.4477 C   0  0  0  0  0  0  0  0  0  0  0  0
    5.3688    4.9149    0.5574 C   0  0  0  0  0  0  0  0  0  0  0  0
    5.9077    5.2654    1.7796 C   0  0  0  0  0  0  0  0  0  0  0  0
    6.5836    6.4813    1.9092 C   0  0  0  0  0  0  0  0  0  0  0  0
    7.1747    6.9151    3.2406 C   0  0  0  0  0  0  0  0  0  0  0  0
    6.9456    8.1209    3.9399 C   0  0  0  0  0  0  0  0  0  0  0  0
    7.7042    8.1909    5.0211 N   0  0  0  0  0  0  0  0  0  0  0  0
    8.4288    7.0323    5.0131 N   0  0  0  0  0  0  0  0  0  0  0  0
    8.1148    6.2525    3.9427 C   0  0  0  0  0  0  0  0  0  0  0  0
    8.7101    4.8955    3.6043 C   0  0  0  0  0  0  0  0  0  0  0  0
    9.3798    4.6915    2.4140 C   0  0  0  0  0  0  0  0  0  0  0  0
    9.8653    3.4176    2.1083 C   0  0  0  0  0  0  0  0  0  0  0  0
    9.6616    2.4094    3.0419 C   0  0  0  0  0  0  0  0  0  0  0  0
    9.0051    2.7051    4.2145 C   0  0  0  0  0  0  0  0  0  0  0  0
    8.5197    3.9167    4.5029 N   0  0  0  0  0  0  0  0  0  0  0  0
    6.6962    7.2796    0.7779 C   0  0  0  0  0  0  0  0  0  0  0  0
    6.1504    6.8425   -0.4072 C   0  0  0  0  0  0  0  0  0  0  0  0
    5.4843    5.6904   -0.5320 N   0  0  0  0  0  0  0  0  0  0  0  0
    3.5064    3.3379    1.2013 C   0  0  0  0  0  0  0  0  0  0  0  0
    2.7464    2.2157    0.9754 C   0  0  0  0  0  0  0  0  0  0  0  0
    2.5893   -2.1470   -0.2222 H   0  0  0  0  0  0  0  0  0  0  0  0
    4.9513   -2.2659   -0.1758 H   0  0  0  0  0  0  0  0  0  0  0  0
    4.5989    0.3531    1.2438 H   0  0  0  0  0  0  0  0  0  0  0  0
    4.8154   -1.2212    1.9752 H   0  0  0  0  0  0  0  0  0  0  0  0
    6.9002    0.1379    1.9281 H   0  0  0  0  0  0  0  0  0  0  0  0
    7.0534   -1.3858    1.0657 H   0  0  0  0  0  0  0  0  0  0  0  0
    7.0057   -1.3459   -1.3434 H   0  0  0  0  0  0  0  0  0  0  0  0
    6.8834    0.2025   -2.1701 H   0  0  0  0  0  0  0  0  0  0  0  0
    4.8027   -1.0948   -2.2546 H   0  0  0  0  0  0  0  0  0  0  0  0
    4.6068    0.4360   -1.4265 H   0  0  0  0  0  0  0  0  0  0  0  0
    4.4087    0.9401   -1.6223 H   0  0  0  0  0  0  0  0  0  0  0  0
    5.9877    2.7095   -0.7914 H   0  0  0  0  0  0  0  0  0  0  0  0
    5.8084    4.6112    2.6205 H   0  0  0  0  0  0  0  0  0  0  0  0
    6.2515    8.8762    3.6357 H   0  0  0  0  0  0  0  0  0  0  0  0
    9.1192    6.7829    5.7214 H   0  0  0  0  0  0  0  0  0  0  0  0
    9.5257    5.5024    1.7313 H   0  0  0  0  0  0  0  0  0  0  0  0
   10.3758    3.2254    1.1878 H   0  0  0  0  0  0  0  0  0  0  0  0
   10.0107    1.4159    2.8518 H   0  0  0  0  0  0  0  0  0  0  0  0
    8.8762    1.9236    4.9339 H   0  0  0  0  0  0  0  0  0  0  0  0
    7.2007    8.2219    0.8275 H   0  0  0  0  0  0  0  0  0  0  0  0
    6.2653    7.4576   -1.2751 H   0  0  0  0  0  0  0  0  0  0  0  0
    3.2250    4.0178    1.9781 H   0  0  0  0  0  0  0  0  0  0  0  0
    1.8418    2.0681    1.5275 H   0  0  0  0  0  0  0  0  0  0  0  0
  1  2  2  0  0  0  0
  2  3  1  0  0  0  0
  2 10  1  0  0  0  0
  3  4  1  0  0  0  0
  3 33  1  0  0  0  0
  4  5  1  0  0  0  0
  4  9  1  0  0  0  0
  4 34  1  0  0  0  0
  5  6  1  0  0  0  0
  5 35  1  0  0  0  0
  5 36  1  0  0  0  0
  6  7  1  0  0  0  0
  6 37  1  0  0  0  0
  6 38  1  0  0  0  0
  7  8  1  0  0  0  0
  8  9  1  0  0  0  0
  8 39  1  0  0  0  0
  8 40  1  0  0  0  0
  9 41  1  0  0  0  0
  9 42  1  0  0  0  0
 10 11  1  0  0  0  0
 10 32  2  0  0  0  0
 11 12  2  0  0  0  0
 11 43  1  0  0  0  0
 12 13  1  0  0  0  0
 12 44  1  0  0  0  0
 13 14  1  0  0  0  0
 13 31  2  0  0  0  0
 14 15  1  0  0  0  0
 14 30  2  0  0  0  0
 15 16  2  0  0  0  0
 15 45  1  0  0  0  0
 16 17  1  0  0  0  0
 16 28  1  0  0  0  0
 17 18  1  0  0  0  0
 17 21  2  0  0  0  0
 18 19  2  0  0  0  0
 18 46  1  0  0  0  0
 19 20  1  0  0  0  0
 20 21  1  0  0  0  0
 20 47  1  0  0  0  0
 21 22  1  0  0  0  0
 22 23  1  0  0  0  0
 22 27  2  0  0  0  0
 23 24  2  0  0  0  0
 23 48  1  0  0  0  0
 24 25  1  0  0  0  0
 24 49  1  0  0  0  0
 25 26  2  0  0  0  0
 25 50  1  0  0  0  0
 26 27  1  0  0  0  0
 26 51  1  0  0  0  0
 28 29  2  0  0  0  0
 28 52  1  0  0  0  0
 29 30  1  0  0  0  0
 29 53  1  0  0  0  0
 31 32  1  0  0  0  0
 31 54  1  0  0  0  0
 32 55  1  0  0  0  0
M  END
