
 OpenBabel03132512093D

 48 51  0  0  0  0  0  0  0  0999 V2000
    0.9607   -0.0605   -0.0692 N   0  0  0  0  0  0  0  0  0  0  0  0
    0.2257   -1.2912    0.2565 C   0  0  0  0  0  0  0  0  0  0  0  0
    0.6136   -2.0085    1.2891 N   0  0  0  0  0  0  0  0  0  0  0  0
   -0.1042   -3.1577    1.6021 C   0  0  0  0  0  0  0  0  0  0  0  0
   -1.4411   -3.2103    1.1483 C   0  0  0  0  0  0  0  0  0  0  0  0
   -1.6981   -2.6164   -0.0861 C   0  0  0  0  0  0  0  0  0  0  0  0
   -2.8977   -3.0382   -0.9188 C   0  0  0  0  0  0  0  0  0  0  0  0
   -3.9267   -3.4001   -1.6331 C   0  0  0  0  0  0  0  0  0  0  0  0
   -5.1264   -3.8219   -2.4658 C   0  0  0  0  0  0  0  0  0  0  0  0
   -5.3436   -5.1596   -2.7285 C   0  0  0  0  0  0  0  0  0  0  0  0
   -6.3672   -5.5452   -3.4741 N   0  0  0  0  0  0  0  0  0  0  0  0
   -7.2183   -4.6725   -3.9872 C   0  0  0  0  0  0  0  0  0  0  0  0
   -7.0618   -3.3180   -3.7651 N   0  0  0  0  0  0  0  0  0  0  0  0
   -5.9962   -2.8784   -2.9933 C   0  0  0  0  0  0  0  0  0  0  0  0
   -5.7932   -1.4448   -2.7398 N   0  0  0  0  0  0  0  0  0  0  0  0
   -6.7247   -0.4590   -3.3067 C   0  0  0  0  0  0  0  0  0  0  0  0
   -6.3215    0.5747   -4.1450 C   0  0  0  0  0  0  0  0  0  0  0  0
   -7.3192    1.1490   -4.9641 C   0  0  0  0  0  0  0  0  0  0  0  0
   -8.5955    1.2394   -4.4114 C   0  0  0  0  0  0  0  0  0  0  0  0
   -9.5288    2.1973   -4.8884 O   0  0  0  0  0  0  0  0  0  0  0  0
  -10.8246    2.2741   -4.3125 C   0  0  0  0  0  0  0  0  0  0  0  0
  -11.5386    0.9444   -4.4926 C   0  0  0  0  0  0  0  0  0  0  0  0
  -10.8206   -0.2266   -4.7099 C   0  0  0  0  0  0  0  0  0  0  0  0
  -11.4658   -1.4357   -4.3667 C   0  0  0  0  0  0  0  0  0  0  0  0
  -12.8420   -1.4841   -4.5823 C   0  0  0  0  0  0  0  0  0  0  0  0
  -13.5088   -0.3500   -4.6211 C   0  0  0  0  0  0  0  0  0  0  0  0
  -14.8223   -0.3665   -4.8290 F   0  0  0  0  0  0  0  0  0  0  0  0
  -12.8516    0.8729   -4.4463 C   0  0  0  0  0  0  0  0  0  0  0  0
   -8.9141    0.4147   -3.4363 C   0  0  0  0  0  0  0  0  0  0  0  0
  -10.5334    0.5038   -2.7026 Cl  0  0  0  0  0  0  0  0  0  0  0  0
   -7.9946   -0.5313   -2.9699 C   0  0  0  0  0  0  0  0  0  0  0  0
   -0.8761   -1.6811   -0.5129 N   0  0  0  0  0  0  0  0  0  0  0  0
    0.4507    0.7934   -0.2952 H   0  0  0  0  0  0  0  0  0  0  0  0
    1.9807   -0.0605   -0.0692 H   0  0  0  0  0  0  0  0  0  0  0  0
    0.3333   -3.9605    2.1579 H   0  0  0  0  0  0  0  0  0  0  0  0
   -2.2135   -3.6801    1.7206 H   0  0  0  0  0  0  0  0  0  0  0  0
   -4.6771   -5.8931   -2.3251 H   0  0  0  0  0  0  0  0  0  0  0  0
   -8.0377   -5.0197   -4.5813 H   0  0  0  0  0  0  0  0  0  0  0  0
   -5.0059   -1.1339   -2.1707 H   0  0  0  0  0  0  0  0  0  0  0  0
   -5.3082    0.9175   -4.1684 H   0  0  0  0  0  0  0  0  0  0  0  0
   -7.1067    1.4954   -5.9539 H   0  0  0  0  0  0  0  0  0  0  0  0
  -10.7386    2.4943   -3.2690 H   0  0  0  0  0  0  0  0  0  0  0  0
  -11.3842    3.0477   -4.7954 H   0  0  0  0  0  0  0  0  0  0  0  0
   -9.8308   -0.2126   -5.1159 H   0  0  0  0  0  0  0  0  0  0  0  0
  -10.9278   -2.2681   -3.9637 H   0  0  0  0  0  0  0  0  0  0  0  0
  -13.3439   -2.4200   -4.7129 H   0  0  0  0  0  0  0  0  0  0  0  0
  -13.4236    1.7604   -4.2729 H   0  0  0  0  0  0  0  0  0  0  0  0
   -8.3281   -1.3228   -2.3318 H   0  0  0  0  0  0  0  0  0  0  0  0
  1  2  1  0  0  0  0
  1 33  1  0  0  0  0
  1 34  1  0  0  0  0
  2  3  1  0  0  0  0
  2 32  2  0  0  0  0
  3  4  2  0  0  0  0
  4  5  1  0  0  0  0
  4 35  1  0  0  0  0
  5  6  2  0  0  0  0
  5 36  1  0  0  0  0
  6  7  1  0  0  0  0
  6 32  1  0  0  0  0
  7  8  3  0  0  0  0
  8  9  1  0  0  0  0
  9 10  1  0  0  0  0
  9 14  2  0  0  0  0
 10 11  2  0  0  0  0
 10 37  1  0  0  0  0
 11 12  1  0  0  0  0
 12 13  2  0  0  0  0
 12 38  1  0  0  0  0
 13 14  1  0  0  0  0
 14 15  1  0  0  0  0
 15 16  1  0  0  0  0
 15 39  1  0  0  0  0
 16 17  1  0  0  0  0
 16 31  2  0  0  0  0
 17 18  2  0  0  0  0
 17 40  1  0  0  0  0
 18 19  1  0  0  0  0
 18 41  1  0  0  0  0
 19 20  1  0  0  0  0
 19 29  2  0  0  0  0
 20 21  1  0  0  0  0
 21 22  1  0  0  0  0
 21 42  1  0  0  0  0
 21 43  1  0  0  0  0
 22 23  1  0  0  0  0
 22 28  2  0  0  0  0
 23 24  2  0  0  0  0
 23 44  1  0  0  0  0
 24 25  1  0  0  0  0
 24 45  1  0  0  0  0
 25 26  2  0  0  0  0
 25 46  1  0  0  0  0
 26 27  1  0  0  0  0
 26 28  1  0  0  0  0
 28 47  1  0  0  0  0
 29 30  1  0  0  0  0
 29 31  1  0  0  0  0
 31 48  1  0  0  0  0
M  END
