
 OpenBabel03132514253D

 44 47  0  0  0  0  0  0  0  0999 V2000
    1.0717    0.0556   -0.0421 N   0  0  0  0  0  0  0  0  0  0  0  0
    0.3367    0.6627   -1.1611 C   0  0  0  0  0  0  0  0  0  0  0  0
    0.6782    0.4410   -2.4490 N   0  0  0  0  0  0  0  0  0  0  0  0
    0.0662    1.0963   -3.4703 C   0  0  0  0  0  0  0  0  0  0  0  0
   -0.9215    1.9921   -3.2483 N   0  0  0  0  0  0  0  0  0  0  0  0
   -1.3249    2.2684   -1.9405 C   0  0  0  0  0  0  0  0  0  0  0  0
   -2.2389    3.0778   -1.3813 O   0  0  0  0  0  0  0  0  0  0  0  0
   -2.1837    2.9258   -0.0739 C   0  0  0  0  0  0  0  0  0  0  0  0
   -1.2556    2.0379    0.2513 C   0  0  0  0  0  0  0  0  0  0  0  0
   -0.9017    1.6024    1.6639 C   0  0  0  0  0  0  0  0  0  0  0  0
    0.3373    1.8776    2.2069 C   0  0  0  0  0  0  0  0  0  0  0  0
    0.6011    1.5882    3.4715 C   0  0  0  0  0  0  0  0  0  0  0  0
   -0.3054    1.0346    4.2594 C   0  0  0  0  0  0  0  0  0  0  0  0
    0.0325    0.7380    5.6589 N   0  0  0  0  0  0  0  0  0  0  0  0
    1.3715    1.0566    6.1752 C   0  0  0  0  0  0  0  0  0  0  0  0
    1.6636    0.8001    7.3852 O   0  0  0  0  0  0  0  0  0  0  0  0
    2.3726    1.6718    5.2919 N   0  0  0  0  0  0  0  0  0  0  0  0
    2.0347    1.9685    3.8924 C   0  0  0  0  0  0  0  0  0  0  0  0
    2.9401    1.7260    2.8788 C   0  0  0  0  0  0  0  0  0  0  0  0
    2.6612    2.0594    1.6284 C   0  0  0  0  0  0  0  0  0  0  0  0
    1.5122    2.6273    1.3025 C   0  0  0  0  0  0  0  0  0  0  0  0
    0.5598    2.8992    2.2655 C   0  0  0  0  0  0  0  0  0  0  0  0
   -0.7581    3.5523    1.8820 C   0  0  0  0  0  0  0  0  0  0  0  0
   -0.5207    4.7381    1.3285 F   0  0  0  0  0  0  0  0  0  0  0  0
   -1.4002    2.7776    1.0122 F   0  0  0  0  0  0  0  0  0  0  0  0
   -1.5065    3.7125    2.9697 F   0  0  0  0  0  0  0  0  0  0  0  0
    0.8215    2.5685    3.5871 C   0  0  0  0  0  0  0  0  0  0  0  0
   -1.5661    0.7319    3.7826 C   0  0  0  0  0  0  0  0  0  0  0  0
   -1.8748    1.0161    2.4603 C   0  0  0  0  0  0  0  0  0  0  0  0
   -0.6841    1.5904   -0.8658 C   0  0  0  0  0  0  0  0  0  0  0  0
    0.5617   -0.3657    0.7343 H   0  0  0  0  0  0  0  0  0  0  0  0
    2.0917    0.0556   -0.0421 H   0  0  0  0  0  0  0  0  0  0  0  0
    0.3741    0.8982   -4.4757 H   0  0  0  0  0  0  0  0  0  0  0  0
   -2.8019    3.4464    0.6273 H   0  0  0  0  0  0  0  0  0  0  0  0
    1.0928    2.3298    1.5990 H   0  0  0  0  0  0  0  0  0  0  0  0
    1.5714    1.8075    3.8657 H   0  0  0  0  0  0  0  0  0  0  0  0
   -0.6621    0.3111    6.2718 H   0  0  0  0  0  0  0  0  0  0  0  0
    3.3017    1.8929    5.6501 H   0  0  0  0  0  0  0  0  0  0  0  0
    3.8777    1.2635    3.1064 H   0  0  0  0  0  0  0  0  0  0  0  0
    3.3830    1.8648    0.8629 H   0  0  0  0  0  0  0  0  0  0  0  0
    1.3179    2.8791    0.2808 H   0  0  0  0  0  0  0  0  0  0  0  0
    0.1037    2.7717    4.3542 H   0  0  0  0  0  0  0  0  0  0  0  0
   -2.2952    0.2839    4.4250 H   0  0  0  0  0  0  0  0  0  0  0  0
   -2.8420    0.7882    2.0634 H   0  0  0  0  0  0  0  0  0  0  0  0
  1  2  1  0  0  0  0
  1 31  1  0  0  0  0
  1 32  1  0  0  0  0
  2  3  1  0  0  0  0
  2 30  2  0  0  0  0
  3  4  2  0  0  0  0
  4  5  1  0  0  0  0
  4 33  1  0  0  0  0
  5  6  2  0  0  0  0
  6  7  1  0  0  0  0
  6 30  1  0  0  0  0
  7  8  1  0  0  0  0
  8  9  2  0  0  0  0
  8 34  1  0  0  0  0
  9 10  1  0  0  0  0
  9 30  1  0  0  0  0
 10 11  1  0  0  0  0
 10 29  2  0  0  0  0
 11 12  2  0  0  0  0
 11 35  1  0  0  0  0
 12 13  1  0  0  0  0
 12 36  1  0  0  0  0
 13 14  1  0  0  0  0
 13 28  2  0  0  0  0
 14 15  1  0  0  0  0
 14 37  1  0  0  0  0
 15 16  2  0  0  0  0
 15 17  1  0  0  0  0
 17 18  1  0  0  0  0
 17 38  1  0  0  0  0
 18 19  1  0  0  0  0
 18 27  2  0  0  0  0
 19 20  2  0  0  0  0
 19 39  1  0  0  0  0
 20 21  1  0  0  0  0
 20 40  1  0  0  0  0
 21 22  2  0  0  0  0
 21 41  1  0  0  0  0
 22 23  1  0  0  0  0
 22 27  1  0  0  0  0
 23 24  1  0  0  0  0
 23 25  1  0  0  0  0
 23 26  1  0  0  0  0
 27 42  1  0  0  0  0
 28 29  1  0  0  0  0
 28 43  1  0  0  0  0
 29 44  1  0  0  0  0
M  END
