
 OpenBabel03132514253D

 44 47  0  0  0  0  0  0  0  0999 V2000
    1.0557   -0.0147   -0.0817 C   0  0  0  0  0  0  0  0  0  0  0  0
    0.5824   -0.7405    1.0433 O   0  0  0  0  0  0  0  0  0  0  0  0
    0.9254   -2.1094    1.2006 C   0  0  0  0  0  0  0  0  0  0  0  0
   -0.0551   -3.0175    1.5646 C   0  0  0  0  0  0  0  0  0  0  0  0
    0.4507   -4.2742    1.9734 C   0  0  0  0  0  0  0  0  0  0  0  0
    1.6688   -4.7122    1.7121 C   0  0  0  0  0  0  0  0  0  0  0  0
    2.5738   -3.7777    1.2910 C   0  0  0  0  0  0  0  0  0  0  0  0
    4.0368   -4.1639    1.1460 C   0  0  0  0  0  0  0  0  0  0  0  0
    4.5392   -4.5953    2.4021 O   0  0  0  0  0  0  0  0  0  0  0  0
    4.5262   -3.7116    3.5135 C   0  0  0  0  0  0  0  0  0  0  0  0
    3.4312   -2.9135    3.8618 C   0  0  0  0  0  0  0  0  0  0  0  0
    3.6738   -2.1326    4.9680 C   0  0  0  0  0  0  0  0  0  0  0  0
    2.6974   -1.2046    5.5565 N   0  0  0  0  0  0  0  0  0  0  0  0
    1.4314   -1.0746    4.9907 C   0  0  0  0  0  0  0  0  0  0  0  0
    1.0904   -1.8239    3.8672 N   0  0  0  0  0  0  0  0  0  0  0  0
    2.0668   -2.7519    3.2786 C   0  0  0  0  0  0  0  0  0  0  0  0
    2.2262   -2.7038    1.9036 C   0  0  0  0  0  0  0  0  0  0  0  0
    2.9819   -3.7774    1.3761 C   0  0  0  0  0  0  0  0  0  0  0  0
    3.7741   -4.5572    2.0891 C   0  0  0  0  0  0  0  0  0  0  0  0
    3.6142   -4.5087    3.4461 C   0  0  0  0  0  0  0  0  0  0  0  0
    2.7929   -3.5733    4.0279 C   0  0  0  0  0  0  0  0  0  0  0  0
    5.2664   -2.3797    5.5764 S   0  0  0  0  0  0  0  0  0  0  0  0
    5.5864   -3.5417    4.3488 C   0  0  0  0  0  0  0  0  0  0  0  0
    6.9016   -4.2916    4.2131 C   0  0  0  0  0  0  0  0  0  0  0  0
    7.9926   -4.0404    5.1657 N   0  0  0  0  0  0  0  0  0  0  0  0
    7.0579   -5.1358    3.2760 O   0  0  0  0  0  0  0  0  0  0  0  0
    2.1798   -2.4947    0.9971 C   0  0  0  0  0  0  0  0  0  0  0  0
    0.6991    0.9929   -0.0320 H   0  0  0  0  0  0  0  0  0  0  0  0
    0.6991   -0.4754   -0.9792 H   0  0  0  0  0  0  0  0  0  0  0  0
    2.1257   -0.0147   -0.0817 H   0  0  0  0  0  0  0  0  0  0  0  0
   -1.1002   -2.7895    1.5389 H   0  0  0  0  0  0  0  0  0  0  0  0
   -0.1990   -4.9141    2.5331 H   0  0  0  0  0  0  0  0  0  0  0  0
    1.9334   -5.7429    1.8240 H   0  0  0  0  0  0  0  0  0  0  0  0
    4.1273   -4.9574    0.4340 H   0  0  0  0  0  0  0  0  0  0  0  0
    4.5975   -3.3170    0.8094 H   0  0  0  0  0  0  0  0  0  0  0  0
    2.5052   -2.9109    3.3258 H   0  0  0  0  0  0  0  0  0  0  0  0
    0.7207   -0.3991    5.4191 H   0  0  0  0  0  0  0  0  0  0  0  0
    1.8152   -1.9252    1.2954 H   0  0  0  0  0  0  0  0  0  0  0  0
    2.9061   -3.9711    0.3265 H   0  0  0  0  0  0  0  0  0  0  0  0
    4.5020   -5.1927    1.6296 H   0  0  0  0  0  0  0  0  0  0  0  0
    4.1361   -5.2093    4.0640 H   0  0  0  0  0  0  0  0  0  0  0  0
    8.8752   -4.5436    5.0746 H   0  0  0  0  0  0  0  0  0  0  0  0
    7.8671   -3.3628    5.9177 H   0  0  0  0  0  0  0  0  0  0  0  0
    2.8901   -1.7997    0.6005 H   0  0  0  0  0  0  0  0  0  0  0  0
  1  2  1  0  0  0  0
  1 28  1  0  0  0  0
  1 29  1  0  0  0  0
  1 30  1  0  0  0  0
  2  3  1  0  0  0  0
  3  4  1  0  0  0  0
  3 27  2  0  0  0  0
  4  5  2  0  0  0  0
  4 31  1  0  0  0  0
  5  6  1  0  0  0  0
  5 32  1  0  0  0  0
  6  7  2  0  0  0  0
  6 33  1  0  0  0  0
  7  8  1  0  0  0  0
  7 27  1  0  0  0  0
  8  9  1  0  0  0  0
  8 34  1  0  0  0  0
  8 35  1  0  0  0  0
  9 10  1  0  0  0  0
 10 11  1  0  0  0  0
 10 23  2  0  0  0  0
 11 12  2  0  0  0  0
 11 36  1  0  0  0  0
 12 13  1  0  0  0  0
 12 22  1  0  0  0  0
 13 14  1  0  0  0  0
 13 21  1  0  0  0  0
 14 15  2  0  0  0  0
 14 37  1  0  0  0  0
 15 16  1  0  0  0  0
 16 17  1  0  0  0  0
 16 21  2  0  0  0  0
 17 18  2  0  0  0  0
 17 38  1  0  0  0  0
 18 19  1  0  0  0  0
 18 39  1  0  0  0  0
 19 20  2  0  0  0  0
 19 40  1  0  0  0  0
 20 21  1  0  0  0  0
 20 41  1  0  0  0  0
 22 23  1  0  0  0  0
 23 24  1  0  0  0  0
 24 25  1  0  0  0  0
 24 26  2  0  0  0  0
 25 42  1  0  0  0  0
 25 43  1  0  0  0  0
 27 44  1  0  0  0  0
M  END
