
 OpenBabel03132514253D

 46 47  0  0  0  0  0  0  0  0999 V2000
    1.0340    0.0663    0.0666 C   0  0  0  0  0  0  0  0  0  0  0  0
    0.5274    1.2893    0.8137 C   0  0  0  0  0  0  0  0  0  0  0  0
    1.0007    2.4649    0.1732 O   0  0  0  0  0  0  0  0  0  0  0  0
    2.3968    2.6928    0.0490 C   0  0  0  0  0  0  0  0  0  0  0  0
    2.9291    3.9350    0.3311 N   0  0  0  0  0  0  0  0  0  0  0  0
    4.2294    4.1555    0.2173 C   0  0  0  0  0  0  0  0  0  0  0  0
    4.7591    5.4930    0.5196 N   0  0  0  0  0  0  0  0  0  0  0  0
    3.8477    6.5661    0.9425 C   0  0  0  0  0  0  0  0  0  0  0  0
    4.3057    7.7225    1.2039 O   0  0  0  0  0  0  0  0  0  0  0  0
    2.3577    6.2928    1.0672 C   0  0  0  0  0  0  0  0  0  0  0  0
    1.8085    5.8545   -0.2807 C   0  0  0  0  0  0  0  0  0  0  0  0
    1.7100    4.4705   -0.5953 C   0  0  0  0  0  0  0  0  0  0  0  0
    1.5867    4.0761   -1.9376 C   0  0  0  0  0  0  0  0  0  0  0  0
    1.7846    2.7173   -2.2992 O   0  0  0  0  0  0  0  0  0  0  0  0
    2.1071    1.7574   -1.3038 C   0  0  0  0  0  0  0  0  0  0  0  0
    1.2912    4.9551   -2.8496 C   0  0  0  0  0  0  0  0  0  0  0  0
    1.0851    6.2946   -2.4935 C   0  0  0  0  0  0  0  0  0  0  0  0
    1.4991    6.7514   -1.2186 C   0  0  0  0  0  0  0  0  0  0  0  0
    1.5836    8.1418   -0.9430 O   0  0  0  0  0  0  0  0  0  0  0  0
    2.0002    8.5874    0.3394 C   0  0  0  0  0  0  0  0  0  0  0  0
    5.0635    3.2018   -0.1618 C   0  0  0  0  0  0  0  0  0  0  0  0
    4.6001    1.9349   -0.4601 C   0  0  0  0  0  0  0  0  0  0  0  0
    5.5341    0.8807   -0.8809 N   0  0  0  0  0  0  0  0  0  0  0  0
    3.2422    1.6705   -0.3574 C   0  0  0  0  0  0  0  0  0  0  0  0
    2.6926    0.2912   -0.6828 C   0  0  0  0  0  0  0  0  0  0  0  0
    2.2367   -0.8531   -0.9528 N   0  0  0  0  0  0  0  0  0  0  0  0
    0.6774    0.0913   -0.9419 H   0  0  0  0  0  0  0  0  0  0  0  0
    0.6774   -0.8195    0.5493 H   0  0  0  0  0  0  0  0  0  0  0  0
    2.1040    0.0663    0.0666 H   0  0  0  0  0  0  0  0  0  0  0  0
   -0.5426    1.2893    0.8137 H   0  0  0  0  0  0  0  0  0  0  0  0
    0.8840    1.2643    1.8222 H   0  0  0  0  0  0  0  0  0  0  0  0
    5.7589    5.6765    0.4360 H   0  0  0  0  0  0  0  0  0  0  0  0
    2.1963    5.5178    1.7871 H   0  0  0  0  0  0  0  0  0  0  0  0
    1.8569    7.1837    1.3837 H   0  0  0  0  0  0  0  0  0  0  0  0
    1.7296    3.7369    0.1834 H   0  0  0  0  0  0  0  0  0  0  0  0
    3.0235    2.0337   -0.8255 H   0  0  0  0  0  0  0  0  0  0  0  0
    1.3227    1.7199   -0.5770 H   0  0  0  0  0  0  0  0  0  0  0  0
    2.2182    0.7953   -1.7587 H   0  0  0  0  0  0  0  0  0  0  0  0
    1.2055    4.6551   -3.8731 H   0  0  0  0  0  0  0  0  0  0  0  0
    0.6175    6.9683   -3.1808 H   0  0  0  0  0  0  0  0  0  0  0  0
    1.3250    8.2172    1.0823 H   0  0  0  0  0  0  0  0  0  0  0  0
    2.9861    8.2236    0.5405 H   0  0  0  0  0  0  0  0  0  0  0  0
    2.0033    9.6572    0.3616 H   0  0  0  0  0  0  0  0  0  0  0  0
    6.1095    3.4138   -0.2384 H   0  0  0  0  0  0  0  0  0  0  0  0
    6.5313    1.0822   -0.9543 H   0  0  0  0  0  0  0  0  0  0  0  0
    5.1850   -0.0524   -1.0996 H   0  0  0  0  0  0  0  0  0  0  0  0
  1  2  1  0  0  0  0
  1 27  1  0  0  0  0
  1 28  1  0  0  0  0
  1 29  1  0  0  0  0
  2  3  1  0  0  0  0
  2 30  1  0  0  0  0
  2 31  1  0  0  0  0
  3  4  1  0  0  0  0
  4  5  1  0  0  0  0
  4 24  2  0  0  0  0
  5  6  2  0  0  0  0
  6  7  1  0  0  0  0
  6 21  1  0  0  0  0
  7  8  1  0  0  0  0
  7 32  1  0  0  0  0
  8  9  2  0  0  0  0
  8 10  1  0  0  0  0
 10 11  1  0  0  0  0
 10 33  1  0  0  0  0
 10 34  1  0  0  0  0
 11 12  1  0  0  0  0
 11 18  2  0  0  0  0
 12 13  2  0  0  0  0
 12 35  1  0  0  0  0
 13 14  1  0  0  0  0
 13 16  1  0  0  0  0
 14 15  1  0  0  0  0
 15 36  1  0  0  0  0
 15 37  1  0  0  0  0
 15 38  1  0  0  0  0
 16 17  2  0  0  0  0
 16 39  1  0  0  0  0
 17 18  1  0  0  0  0
 17 40  1  0  0  0  0
 18 19  1  0  0  0  0
 19 20  1  0  0  0  0
 20 41  1  0  0  0  0
 20 42  1  0  0  0  0
 20 43  1  0  0  0  0
 21 22  2  0  0  0  0
 21 44  1  0  0  0  0
 22 23  1  0  0  0  0
 22 24  1  0  0  0  0
 23 45  1  0  0  0  0
 23 46  1  0  0  0  0
 24 25  1  0  0  0  0
 25 26  3  0  0  0  0
M  END
