
 OpenBabel03132512093D

 50 55  0  0  0  0  0  0  0  0999 V2000
    2.1370   -0.0110   -0.0020 F   0  0  0  0  0  0  0  0  0  0  0  0
    0.7800   -0.0010    0.0050 C   0  0  0  0  0  0  0  0  0  0  0  0
    0.1270   -1.1860    0.0050 C   0  0  0  0  0  0  0  0  0  0  0  0
   -1.2590   -1.1770   -0.0060 C   0  0  0  0  0  0  0  0  0  0  0  0
   -1.9460    0.0020   -0.0010 C   0  0  0  0  0  0  0  0  0  0  0  0
   -3.4660    0.0108   -0.0020 C   0  0  0  0  0  0  0  0  0  0  0  0
   -4.2249   -0.5335    0.9378 N   0  0  0  0  0  0  0  0  0  0  0  0
   -5.5036   -0.3385    0.6188 N   0  0  0  0  0  0  0  0  0  0  0  0
   -6.7406   -0.6742    1.2079 N   0  0  0  0  0  0  0  0  0  0  0  0
   -7.8873   -0.3077    0.5953 C   0  0  0  0  0  0  0  0  0  0  0  0
   -7.8794    0.3724   -0.5814 C   0  0  0  0  0  0  0  0  0  0  0  0
   -6.7250    0.7255   -1.1895 C   0  0  0  0  0  0  0  0  0  0  0  0
   -5.5028    0.3791   -0.6101 C   0  0  0  0  0  0  0  0  0  0  0  0
   -4.2132    0.5607   -0.9374 C   0  0  0  0  0  0  0  0  0  0  0  0
   -3.7025    1.2785   -2.1761 C   0  0  0  0  0  0  0  0  0  0  0  0
   -2.8005    0.5868   -2.9773 C   0  0  0  0  0  0  0  0  0  0  0  0
   -2.6160    1.0776   -4.2891 C   0  0  0  0  0  0  0  0  0  0  0  0
   -2.6733    2.4615   -4.4445 N   0  0  0  0  0  0  0  0  0  0  0  0
   -3.3301    3.1645   -3.5463 C   0  0  0  0  0  0  0  0  0  0  0  0
   -3.4049    4.6265   -3.6807 N   0  0  0  0  0  0  0  0  0  0  0  0
   -2.7483    5.2950   -4.8133 C   0  0  0  0  0  0  0  0  0  0  0  0
   -1.8507    6.3157   -4.5194 C   0  0  0  0  0  0  0  0  0  0  0  0
   -0.9491    6.6784   -5.5447 C   0  0  0  0  0  0  0  0  0  0  0  0
   -1.4393    6.6183   -6.8480 C   0  0  0  0  0  0  0  0  0  0  0  0
   -2.4606    5.8258   -7.0956 C   0  0  0  0  0  0  0  0  0  0  0  0
   -3.0363    5.0603   -6.0755 C   0  0  0  0  0  0  0  0  0  0  0  0
   -2.9843    5.7467   -8.4132 O   0  0  0  0  0  0  0  0  0  0  0  0
   -4.0860    4.8943   -8.6893 C   0  0  0  0  0  0  0  0  0  0  0  0
   -3.7123    3.4592   -8.3560 C   0  0  0  0  0  0  0  0  0  0  0  0
   -0.8516    7.3928   -7.8830 O   0  0  0  0  0  0  0  0  0  0  0  0
   -3.9581    2.5364   -2.4651 N   0  0  0  0  0  0  0  0  0  0  0  0
   -1.2340    1.1920    0.0050 C   0  0  0  0  0  0  0  0  0  0  0  0
    0.1520    1.1880   -0.0060 C   0  0  0  0  0  0  0  0  0  0  0  0
    0.6682   -2.1090    0.0133 H   0  0  0  0  0  0  0  0  0  0  0  0
   -1.7951   -2.1029   -0.0185 H   0  0  0  0  0  0  0  0  0  0  0  0
   -8.8241   -0.5588    1.0471 H   0  0  0  0  0  0  0  0  0  0  0  0
   -8.8108    0.6350   -1.0380 H   0  0  0  0  0  0  0  0  0  0  0  0
   -6.7477    1.2684   -2.1112 H   0  0  0  0  0  0  0  0  0  0  0  0
   -2.2737   -0.2727   -2.6187 H   0  0  0  0  0  0  0  0  0  0  0  0
   -2.4418    0.4231   -5.1175 H   0  0  0  0  0  0  0  0  0  0  0  0
   -3.9124    5.1770   -2.9881 H   0  0  0  0  0  0  0  0  0  0  0  0
   -1.8435    6.8014   -3.5659 H   0  0  0  0  0  0  0  0  0  0  0  0
    0.0547    6.9823   -5.3325 H   0  0  0  0  0  0  0  0  0  0  0  0
   -3.7188    4.2748   -6.3249 H   0  0  0  0  0  0  0  0  0  0  0  0
   -4.9247    5.1917   -8.0952 H   0  0  0  0  0  0  0  0  0  0  0  0
   -4.3404    4.9650   -9.7263 H   0  0  0  0  0  0  0  0  0  0  0  0
   -4.5424    2.8169   -8.5641 H   0  0  0  0  0  0  0  0  0  0  0  0
   -2.8735    3.1618   -8.9501 H   0  0  0  0  0  0  0  0  0  0  0  0
   -1.7604    2.1235    0.0183 H   0  0  0  0  0  0  0  0  0  0  0  0
    0.7056    2.1035   -0.0227 H   0  0  0  0  0  0  0  0  0  0  0  0
  1  2  1  0  0  0  0
  2  3  1  0  0  0  0
  2 33  2  0  0  0  0
  3  4  2  0  0  0  0
  3 34  1  0  0  0  0
  4  5  1  0  0  0  0
  4 35  1  0  0  0  0
  5  6  1  0  0  0  0
  5 32  2  0  0  0  0
  6  7  2  0  0  0  0
  6 14  1  0  0  0  0
  7  8  1  0  0  0  0
  8  9  1  0  0  0  0
  8 13  1  0  0  0  0
  9 10  2  0  0  0  0
 10 11  1  0  0  0  0
 10 36  1  0  0  0  0
 11 12  2  0  0  0  0
 11 37  1  0  0  0  0
 12 13  1  0  0  0  0
 12 38  1  0  0  0  0
 13 14  2  0  0  0  0
 14 15  1  0  0  0  0
 15 16  1  0  0  0  0
 15 31  2  0  0  0  0
 16 17  2  0  0  0  0
 16 39  1  0  0  0  0
 17 18  1  0  0  0  0
 17 40  1  0  0  0  0
 18 19  2  0  0  0  0
 19 20  1  0  0  0  0
 19 31  1  0  0  0  0
 20 21  1  0  0  0  0
 20 41  1  0  0  0  0
 21 22  1  0  0  0  0
 21 26  2  0  0  0  0
 22 23  2  0  0  0  0
 22 42  1  0  0  0  0
 23 24  1  0  0  0  0
 23 43  1  0  0  0  0
 24 25  2  0  0  0  0
 24 30  1  0  0  0  0
 25 26  1  0  0  0  0
 25 27  1  0  0  0  0
 26 44  1  0  0  0  0
 27 28  1  0  0  0  0
 28 29  1  0  0  0  0
 28 45  1  0  0  0  0
 28 46  1  0  0  0  0
 29 30  1  0  0  0  0
 29 47  1  0  0  0  0
 29 48  1  0  0  0  0
 32 33  1  0  0  0  0
 32 49  1  0  0  0  0
 33 50  1  0  0  0  0
M  END
