
 OpenBabel03132512093D

 53 58  0  0  0  0  0  0  0  0999 V2000
    1.0624   -0.0566   -0.0538 F   0  0  0  0  0  0  0  0  0  0  0  0
    2.3924   -0.0566   -0.0538 C   0  0  0  0  0  0  0  0  0  0  0  0
    2.8358    0.7996   -0.9699 F   0  0  0  0  0  0  0  0  0  0  0  0
    2.8358    0.3086    1.1458 F   0  0  0  0  0  0  0  0  0  0  0  0
    2.8991   -1.4526   -0.3778 C   0  0  0  0  0  0  0  0  0  0  0  0
    1.9971   -2.4988   -0.2754 C   0  0  0  0  0  0  0  0  0  0  0  0
    2.5975   -3.7794   -0.3170 C   0  0  0  0  0  0  0  0  0  0  0  0
    3.8157   -4.0213   -0.7657 C   0  0  0  0  0  0  0  0  0  0  0  0
    4.2800   -5.4286   -1.1036 C   0  0  0  0  0  0  0  0  0  0  0  0
    3.7285   -6.2683   -1.9674 N   0  0  0  0  0  0  0  0  0  0  0  0
    4.4039   -7.4162   -1.9364 N   0  0  0  0  0  0  0  0  0  0  0  0
    4.3004   -8.6525   -2.6078 N   0  0  0  0  0  0  0  0  0  0  0  0
    5.1823   -9.6358   -2.3250 C   0  0  0  0  0  0  0  0  0  0  0  0
    6.1654   -9.4660   -1.4022 C   0  0  0  0  0  0  0  0  0  0  0  0
    6.3163   -8.3021   -0.7316 C   0  0  0  0  0  0  0  0  0  0  0  0
    5.4396   -7.2433   -0.9758 C   0  0  0  0  0  0  0  0  0  0  0  0
    5.3048   -5.9949   -0.4997 C   0  0  0  0  0  0  0  0  0  0  0  0
    6.1848   -5.3458    0.5560 C   0  0  0  0  0  0  0  0  0  0  0  0
    5.6383   -4.9928    1.7851 C   0  0  0  0  0  0  0  0  0  0  0  0
    6.5206   -4.9812    2.8884 C   0  0  0  0  0  0  0  0  0  0  0  0
    7.8265   -4.5679    2.6307 N   0  0  0  0  0  0  0  0  0  0  0  0
    8.2839   -4.6727    1.4010 C   0  0  0  0  0  0  0  0  0  0  0  0
    9.6559   -4.2412    1.0969 N   0  0  0  0  0  0  0  0  0  0  0  0
   10.5084   -3.6965    2.1634 C   0  0  0  0  0  0  0  0  0  0  0  0
   11.0788   -2.4405    2.0377 C   0  0  0  0  0  0  0  0  0  0  0  0
   12.1517   -2.2062    2.9300 C   0  0  0  0  0  0  0  0  0  0  0  0
   12.3885   -2.9148    4.0190 C   0  0  0  0  0  0  0  0  0  0  0  0
   11.7420   -4.1157    4.1157 C   0  0  0  0  0  0  0  0  0  0  0  0
   10.7745   -4.4725    3.2076 C   0  0  0  0  0  0  0  0  0  0  0  0
   12.0751   -5.0069    5.1697 O   0  0  0  0  0  0  0  0  0  0  0  0
   11.4100   -6.2567    5.2797 C   0  0  0  0  0  0  0  0  0  0  0  0
    9.9182   -6.0232    5.4540 C   0  0  0  0  0  0  0  0  0  0  0  0
   13.2673   -2.4543    5.0349 O   0  0  0  0  0  0  0  0  0  0  0  0
    7.4794   -5.1900    0.3797 N   0  0  0  0  0  0  0  0  0  0  0  0
    4.6370   -2.9376   -0.9098 C   0  0  0  0  0  0  0  0  0  0  0  0
    4.1547   -1.6602   -0.7568 C   0  0  0  0  0  0  0  0  0  0  0  0
    0.9421   -2.3519   -0.1741 H   0  0  0  0  0  0  0  0  0  0  0  0
    2.0245   -4.6096    0.0400 H   0  0  0  0  0  0  0  0  0  0  0  0
    5.1049  -10.5706   -2.8398 H   0  0  0  0  0  0  0  0  0  0  0  0
    6.8371  -10.2744   -1.2013 H   0  0  0  0  0  0  0  0  0  0  0  0
    7.1046   -8.1927   -0.0164 H   0  0  0  0  0  0  0  0  0  0  0  0
    4.6032   -4.7428    1.8897 H   0  0  0  0  0  0  0  0  0  0  0  0
    6.2039   -5.2736    3.8678 H   0  0  0  0  0  0  0  0  0  0  0  0
   10.0164   -4.3198    0.1460 H   0  0  0  0  0  0  0  0  0  0  0  0
   10.7390   -1.7135    1.3301 H   0  0  0  0  0  0  0  0  0  0  0  0
   12.8174   -1.3988    2.7070 H   0  0  0  0  0  0  0  0  0  0  0  0
   10.2306   -5.3840    3.3430 H   0  0  0  0  0  0  0  0  0  0  0  0
   11.5799   -6.8305    4.3927 H   0  0  0  0  0  0  0  0  0  0  0  0
   11.7890   -6.7891    6.1269 H   0  0  0  0  0  0  0  0  0  0  0  0
    9.4170   -6.9649    5.5369 H   0  0  0  0  0  0  0  0  0  0  0  0
    9.7483   -5.4494    6.3410 H   0  0  0  0  0  0  0  0  0  0  0  0
    5.6701   -3.0866   -1.1452 H   0  0  0  0  0  0  0  0  0  0  0  0
    4.7967   -0.8251   -0.9448 H   0  0  0  0  0  0  0  0  0  0  0  0
  1  2  1  0  0  0  0
  2  3  1  0  0  0  0
  2  4  1  0  0  0  0
  2  5  1  0  0  0  0
  5  6  1  0  0  0  0
  5 36  2  0  0  0  0
  6  7  2  0  0  0  0
  6 37  1  0  0  0  0
  7  8  1  0  0  0  0
  7 38  1  0  0  0  0
  8  9  1  0  0  0  0
  8 35  2  0  0  0  0
  9 10  2  0  0  0  0
  9 17  1  0  0  0  0
 10 11  1  0  0  0  0
 11 12  1  0  0  0  0
 11 16  1  0  0  0  0
 12 13  2  0  0  0  0
 13 14  1  0  0  0  0
 13 39  1  0  0  0  0
 14 15  2  0  0  0  0
 14 40  1  0  0  0  0
 15 16  1  0  0  0  0
 15 41  1  0  0  0  0
 16 17  2  0  0  0  0
 17 18  1  0  0  0  0
 18 19  1  0  0  0  0
 18 34  2  0  0  0  0
 19 20  2  0  0  0  0
 19 42  1  0  0  0  0
 20 21  1  0  0  0  0
 20 43  1  0  0  0  0
 21 22  2  0  0  0  0
 22 23  1  0  0  0  0
 22 34  1  0  0  0  0
 23 24  1  0  0  0  0
 23 44  1  0  0  0  0
 24 25  1  0  0  0  0
 24 29  2  0  0  0  0
 25 26  2  0  0  0  0
 25 45  1  0  0  0  0
 26 27  1  0  0  0  0
 26 46  1  0  0  0  0
 27 28  2  0  0  0  0
 27 33  1  0  0  0  0
 28 29  1  0  0  0  0
 28 30  1  0  0  0  0
 29 47  1  0  0  0  0
 30 31  1  0  0  0  0
 31 32  1  0  0  0  0
 31 48  1  0  0  0  0
 31 49  1  0  0  0  0
 32 33  1  0  0  0  0
 32 50  1  0  0  0  0
 32 51  1  0  0  0  0
 35 36  1  0  0  0  0
 35 52  1  0  0  0  0
 36 53  1  0  0  0  0
M  END
