
 OpenBabel03132512093D

 43 46  0  0  0  0  0  0  0  0999 V2000
    0.9400   -0.0636   -0.0485 N   0  0  0  0  0  0  0  0  0  0  0  0
    0.2050   -0.9309    0.8834 C   0  0  0  0  0  0  0  0  0  0  0  0
   -1.0659   -0.9309    0.8834 O   0  0  0  0  0  0  0  0  0  0  0  0
    0.9650   -1.8278    1.8469 C   0  0  0  0  0  0  0  0  0  0  0  0
    0.3894   -3.4079    2.2206 S   0  0  0  0  0  0  0  0  0  0  0  0
    1.6241   -3.6100    3.4014 C   0  0  0  0  0  0  0  0  0  0  0  0
    1.7989   -4.8285    4.2050 N   0  0  0  0  0  0  0  0  0  0  0  0
    2.1628   -6.0164    3.7667 C   0  0  0  0  0  0  0  0  0  0  0  0
    2.3465   -6.8488    4.7809 N   0  0  0  0  0  0  0  0  0  0  0  0
    2.1005   -6.1976    5.9167 C   0  0  0  0  0  0  0  0  0  0  0  0
    2.1249   -6.5364    7.2859 C   0  0  0  0  0  0  0  0  0  0  0  0
    1.8093   -5.5993    8.2060 C   0  0  0  0  0  0  0  0  0  0  0  0
    1.8445   -5.9660    9.6807 C   0  0  0  0  0  0  0  0  0  0  0  0
    0.9887   -6.9576    9.9114 F   0  0  0  0  0  0  0  0  0  0  0  0
    3.0727   -6.3544   10.0117 F   0  0  0  0  0  0  0  0  0  0  0  0
    1.5029   -4.9070   10.4091 F   0  0  0  0  0  0  0  0  0  0  0  0
    1.4612   -4.3362    7.8447 C   0  0  0  0  0  0  0  0  0  0  0  0
    1.4253   -3.9530    6.5489 C   0  0  0  0  0  0  0  0  0  0  0  0
    1.7410   -4.8715    5.5459 C   0  0  0  0  0  0  0  0  0  0  0  0
    2.4200   -2.5116    3.5054 C   0  0  0  0  0  0  0  0  0  0  0  0
    2.0520   -1.4925    2.6205 C   0  0  0  0  0  0  0  0  0  0  0  0
    2.7274   -0.2466    2.5305 O   0  0  0  0  0  0  0  0  0  0  0  0
    2.2871    0.7343    1.6030 C   0  0  0  0  0  0  0  0  0  0  0  0
    2.3667    0.1709    0.1936 C   0  0  0  0  0  0  0  0  0  0  0  0
    1.7467    0.8768   -0.8748 C   0  0  0  0  0  0  0  0  0  0  0  0
    1.5092    0.2161   -2.0911 C   0  0  0  0  0  0  0  0  0  0  0  0
    2.0863   -0.9234   -2.3361 C   0  0  0  0  0  0  0  0  0  0  0  0
    2.9539   -1.4887   -1.3921 C   0  0  0  0  0  0  0  0  0  0  0  0
    2.9617   -0.9949   -0.0649 C   0  0  0  0  0  0  0  0  0  0  0  0
    3.8325   -2.0080    1.3693 Br  0  0  0  0  0  0  0  0  0  0  0  0
    0.4300    0.5383   -0.6951 H   0  0  0  0  0  0  0  0  0  0  0  0
    1.9600   -0.0636   -0.0485 H   0  0  0  0  0  0  0  0  0  0  0  0
    2.2918   -6.2729    2.7360 H   0  0  0  0  0  0  0  0  0  0  0  0
    2.3908   -7.5264    7.5926 H   0  0  0  0  0  0  0  0  0  0  0  0
    1.2090   -3.6272    8.6053 H   0  0  0  0  0  0  0  0  0  0  0  0
    1.1561   -2.9495    6.2929 H   0  0  0  0  0  0  0  0  0  0  0  0
    3.2389   -2.4355    4.1898 H   0  0  0  0  0  0  0  0  0  0  0  0
    1.2752    1.0041    1.8226 H   0  0  0  0  0  0  0  0  0  0  0  0
    2.9111    1.6004    1.6767 H   0  0  0  0  0  0  0  0  0  0  0  0
    1.4640    1.9016   -0.7527 H   0  0  0  0  0  0  0  0  0  0  0  0
    0.8532    0.6503   -2.8165 H   0  0  0  0  0  0  0  0  0  0  0  0
    1.8983   -1.4299   -3.2597 H   0  0  0  0  0  0  0  0  0  0  0  0
    3.6068   -2.2887   -1.6725 H   0  0  0  0  0  0  0  0  0  0  0  0
  1  2  1  0  0  0  0
  1 31  1  0  0  0  0
  1 32  1  0  0  0  0
  2  3  2  0  0  0  0
  2  4  1  0  0  0  0
  4  5  1  0  0  0  0
  4 21  2  0  0  0  0
  5  6  1  0  0  0  0
  6  7  1  0  0  0  0
  6 20  2  0  0  0  0
  7  8  1  0  0  0  0
  7 19  1  0  0  0  0
  8  9  2  0  0  0  0
  8 33  1  0  0  0  0
  9 10  1  0  0  0  0
 10 11  1  0  0  0  0
 10 19  2  0  0  0  0
 11 12  2  0  0  0  0
 11 34  1  0  0  0  0
 12 13  1  0  0  0  0
 12 17  1  0  0  0  0
 13 14  1  0  0  0  0
 13 15  1  0  0  0  0
 13 16  1  0  0  0  0
 17 18  2  0  0  0  0
 17 35  1  0  0  0  0
 18 19  1  0  0  0  0
 18 36  1  0  0  0  0
 20 21  1  0  0  0  0
 20 37  1  0  0  0  0
 21 22  1  0  0  0  0
 22 23  1  0  0  0  0
 23 24  1  0  0  0  0
 23 38  1  0  0  0  0
 23 39  1  0  0  0  0
 24 25  1  0  0  0  0
 24 29  2  0  0  0  0
 25 26  2  0  0  0  0
 25 40  1  0  0  0  0
 26 27  1  0  0  0  0
 26 41  1  0  0  0  0
 27 28  2  0  0  0  0
 27 42  1  0  0  0  0
 28 29  1  0  0  0  0
 28 43  1  0  0  0  0
 29 30  1  0  0  0  0
M  END
