
 OpenBabel03132512093D

 43 46  0  0  0  0  0  0  0  0999 V2000
    1.0114   -0.0519    0.0847 N   0  0  0  0  0  0  0  0  0  0  0  0
    0.2764   -0.4415    1.2967 C   0  0  0  0  0  0  0  0  0  0  0  0
   -0.9945   -0.4415    1.2967 O   0  0  0  0  0  0  0  0  0  0  0  0
    1.0364   -0.8443    2.5499 C   0  0  0  0  0  0  0  0  0  0  0  0
    0.5786   -2.1660    3.5554 S   0  0  0  0  0  0  0  0  0  0  0  0
    1.8582   -1.8142    4.6502 C   0  0  0  0  0  0  0  0  0  0  0  0
    2.1373   -2.5953    5.8638 N   0  0  0  0  0  0  0  0  0  0  0  0
    2.1190   -2.0919    7.0893 C   0  0  0  0  0  0  0  0  0  0  0  0
    2.5651   -2.9762    7.9580 N   0  0  0  0  0  0  0  0  0  0  0  0
    2.8904   -4.0963    7.2926 C   0  0  0  0  0  0  0  0  0  0  0  0
    3.4030   -5.3438    7.6539 C   0  0  0  0  0  0  0  0  0  0  0  0
    3.6158   -6.2819    6.7043 C   0  0  0  0  0  0  0  0  0  0  0  0
    3.3533   -6.0420    5.3926 C   0  0  0  0  0  0  0  0  0  0  0  0
    3.6266   -7.1327    4.3698 C   0  0  0  0  0  0  0  0  0  0  0  0
    2.4951   -7.4500    3.7469 F   0  0  0  0  0  0  0  0  0  0  0  0
    4.5141   -6.6949    3.4812 F   0  0  0  0  0  0  0  0  0  0  0  0
    4.1098   -8.2076    4.9863 F   0  0  0  0  0  0  0  0  0  0  0  0
    2.8555   -4.8575    4.9761 C   0  0  0  0  0  0  0  0  0  0  0  0
    2.6076   -3.8404    5.9216 C   0  0  0  0  0  0  0  0  0  0  0  0
    2.5820   -0.7295    4.2626 C   0  0  0  0  0  0  0  0  0  0  0  0
    2.1210   -0.1727    3.0648 C   0  0  0  0  0  0  0  0  0  0  0  0
    2.7090    0.9627    2.4473 O   0  0  0  0  0  0  0  0  0  0  0  0
    2.1773    1.4638    1.2297 C   0  0  0  0  0  0  0  0  0  0  0  0
    2.2528    0.3848    0.1618 C   0  0  0  0  0  0  0  0  0  0  0  0
    1.3257    0.4221   -0.9168 C   0  0  0  0  0  0  0  0  0  0  0  0
    1.1528   -0.7194   -1.7165 C   0  0  0  0  0  0  0  0  0  0  0  0
    2.0113   -1.6943   -1.6532 C   0  0  0  0  0  0  0  0  0  0  0  0
    3.1156   -1.6033   -0.7954 C   0  0  0  0  0  0  0  0  0  0  0  0
    3.1344   -0.6148    0.2185 C   0  0  0  0  0  0  0  0  0  0  0  0
    4.4349   -0.7138    1.6815 Br  0  0  0  0  0  0  0  0  0  0  0  0
    0.5014    0.2184   -0.7563 H   0  0  0  0  0  0  0  0  0  0  0  0
    2.0314   -0.0519    0.0847 H   0  0  0  0  0  0  0  0  0  0  0  0
    1.7882   -1.1053    7.3385 H   0  0  0  0  0  0  0  0  0  0  0  0
    3.6266   -5.5563    8.6785 H   0  0  0  0  0  0  0  0  0  0  0  0
    4.0005   -7.2378    6.9927 H   0  0  0  0  0  0  0  0  0  0  0  0
    2.6511   -4.6922    3.9389 H   0  0  0  0  0  0  0  0  0  0  0  0
    3.4138   -0.3438    4.8142 H   0  0  0  0  0  0  0  0  0  0  0  0
    1.1566    1.7492    1.3769 H   0  0  0  0  0  0  0  0  0  0  0  0
    2.7442    2.3156    0.9167 H   0  0  0  0  0  0  0  0  0  0  0  0
    0.7654    1.3115   -1.1167 H   0  0  0  0  0  0  0  0  0  0  0  0
    0.3146   -0.7870   -2.3781 H   0  0  0  0  0  0  0  0  0  0  0  0
    1.8743   -2.5670   -2.2570 H   0  0  0  0  0  0  0  0  0  0  0  0
    3.9397   -2.2768   -0.9058 H   0  0  0  0  0  0  0  0  0  0  0  0
  1  2  1  0  0  0  0
  1 31  1  0  0  0  0
  1 32  1  0  0  0  0
  2  3  2  0  0  0  0
  2  4  1  0  0  0  0
  4  5  1  0  0  0  0
  4 21  2  0  0  0  0
  5  6  1  0  0  0  0
  6  7  1  0  0  0  0
  6 20  2  0  0  0  0
  7  8  1  0  0  0  0
  7 19  1  0  0  0  0
  8  9  2  0  0  0  0
  8 33  1  0  0  0  0
  9 10  1  0  0  0  0
 10 11  1  0  0  0  0
 10 19  2  0  0  0  0
 11 12  2  0  0  0  0
 11 34  1  0  0  0  0
 12 13  1  0  0  0  0
 12 35  1  0  0  0  0
 13 14  1  0  0  0  0
 13 18  2  0  0  0  0
 14 15  1  0  0  0  0
 14 16  1  0  0  0  0
 14 17  1  0  0  0  0
 18 19  1  0  0  0  0
 18 36  1  0  0  0  0
 20 21  1  0  0  0  0
 20 37  1  0  0  0  0
 21 22  1  0  0  0  0
 22 23  1  0  0  0  0
 23 24  1  0  0  0  0
 23 38  1  0  0  0  0
 23 39  1  0  0  0  0
 24 25  1  0  0  0  0
 24 29  2  0  0  0  0
 25 26  2  0  0  0  0
 25 40  1  0  0  0  0
 26 27  1  0  0  0  0
 26 41  1  0  0  0  0
 27 28  2  0  0  0  0
 27 42  1  0  0  0  0
 28 29  1  0  0  0  0
 28 43  1  0  0  0  0
 29 30  1  0  0  0  0
M  END
