
 OpenBabel03132512093D

 19 18  0  0  0  0  0  0  0  0999 V2000
    1.0331    0.0361    0.0872 N   0  0  0  0  0  0  0  0  0  0  0  0
    0.5431    0.1539    1.4681 C   0  0  0  0  0  0  0  0  0  0  0  0
    1.0498    1.4514    2.0766 C   0  0  0  0  0  0  0  0  0  0  0  0
    0.5431    2.6271    1.2572 C   0  0  0  0  0  0  0  0  0  0  0  0
   -1.2669    2.6271    1.2572 S   0  0  0  0  0  0  0  0  0  0  0  0
   -1.7770    3.8108    0.4321 O   0  0  0  0  0  0  0  0  0  0  0  0
   -1.8369    1.1674    0.5726 O   0  0  0  0  0  0  0  0  0  0  0  0
   -0.9769    0.1539    1.4681 C   0  0  0  0  0  0  0  0  0  0  0  0
   -1.6123   -0.7491    2.0974 O   0  0  0  0  0  0  0  0  0  0  0  0
   -1.6869    1.1628    0.7649 O   0  0  0  0  0  0  0  0  0  0  0  0
    0.6931    0.8251   -0.4627 H   0  0  0  0  0  0  0  0  0  0  0  0
    2.0531    0.0361    0.0872 H   0  0  0  0  0  0  0  0  0  0  0  0
    0.8998   -0.6737    2.0449 H   0  0  0  0  0  0  0  0  0  0  0  0
    0.6931    1.5371    3.0817 H   0  0  0  0  0  0  0  0  0  0  0  0
    2.1198    1.4514    2.0766 H   0  0  0  0  0  0  0  0  0  0  0  0
    0.8998    3.5404    1.6855 H   0  0  0  0  0  0  0  0  0  0  0  0
    0.8998    2.5413    0.2520 H   0  0  0  0  0  0  0  0  0  0  0  0
   -2.8369    1.1674    0.5726 H   0  0  0  0  0  0  0  0  0  0  0  0
   -2.6869    1.1628    0.7649 H   0  0  0  0  0  0  0  0  0  0  0  0
  1  2  1  0  0  0  0
  1 11  1  0  0  0  0
  1 12  1  0  0  0  0
  2  3  1  0  0  0  0
  2  8  1  0  0  0  0
  2 13  1  0  0  0  0
  3  4  1  0  0  0  0
  3 14  1  0  0  0  0
  3 15  1  0  0  0  0
  4  5  1  0  0  0  0
  4 16  1  0  0  0  0
  4 17  1  0  0  0  0
  5  6  2  0  0  0  0
  5  7  1  0  0  0  0
  7 18  1  0  0  0  0
  8  9  2  0  0  0  0
  8 10  1  0  0  0  0
 10 19  1  0  0  0  0
M  END
