
 OpenBabel03132514253D

 56 55  0  0  0  0  0  0  0  0999 V2000
    0.9658   -0.0847   -0.0407 C   0  0  0  0  0  0  0  0  0  0  0  0
    0.4591   -1.1210   -1.0305 C   0  0  0  0  0  0  0  0  0  0  0  0
    0.9658   -2.4964   -0.6279 C   0  0  0  0  0  0  0  0  0  0  0  0
    0.4591   -2.8354    0.7645 C   0  0  0  0  0  0  0  0  0  0  0  0
   -1.0609   -2.8354    0.7645 C   0  0  0  0  0  0  0  0  0  0  0  0
   -1.5676   -3.8717   -0.2253 C   0  0  0  0  0  0  0  0  0  0  0  0
   -1.0609   -5.2471    0.1773 C   0  0  0  0  0  0  0  0  0  0  0  0
   -1.5676   -5.5861    1.5697 C   0  0  0  0  0  0  0  0  0  0  0  0
   -3.0876   -5.5861    1.5697 C   0  0  0  0  0  0  0  0  0  0  0  0
   -1.0609   -6.9614    1.9723 C   0  0  0  0  0  0  0  0  0  0  0  0
    0.4591   -6.9615    1.9723 C   0  0  0  0  0  0  0  0  0  0  0  0
   -1.5676   -7.3005    3.3647 C   0  0  0  0  0  0  0  0  0  0  0  0
   -3.0876   -7.3004    3.3647 C   0  0  0  0  0  0  0  0  0  0  0  0
   -3.5943   -8.3368    2.3749 C   0  0  0  0  0  0  0  0  0  0  0  0
   -3.0876   -9.7122    2.7776 C   0  0  0  0  0  0  0  0  0  0  0  0
   -3.5943  -10.0512    4.1699 C   0  0  0  0  0  0  0  0  0  0  0  0
   -5.1143  -10.0512    4.1700 C   0  0  0  0  0  0  0  0  0  0  0  0
   -5.6210  -11.0875    3.1802 C   0  0  0  0  0  0  0  0  0  0  0  0
    0.6091   -0.3233    0.9394 H   0  0  0  0  0  0  0  0  0  0  0  0
    0.6091    0.8835   -0.3241 H   0  0  0  0  0  0  0  0  0  0  0  0
    2.0358   -0.0847   -0.0407 H   0  0  0  0  0  0  0  0  0  0  0  0
   -0.6109   -1.1210   -1.0305 H   0  0  0  0  0  0  0  0  0  0  0  0
    0.8158   -0.8824   -2.0107 H   0  0  0  0  0  0  0  0  0  0  0  0
    0.6091   -3.2259   -1.3247 H   0  0  0  0  0  0  0  0  0  0  0  0
    2.0358   -2.4964   -0.6279 H   0  0  0  0  0  0  0  0  0  0  0  0
    0.8158   -3.8036    1.0479 H   0  0  0  0  0  0  0  0  0  0  0  0
    0.8158   -2.1059    1.4613 H   0  0  0  0  0  0  0  0  0  0  0  0
   -1.4176   -3.0740    1.7447 H   0  0  0  0  0  0  0  0  0  0  0  0
   -1.4176   -1.8672    0.4811 H   0  0  0  0  0  0  0  0  0  0  0  0
   -2.6376   -3.8717   -0.2253 H   0  0  0  0  0  0  0  0  0  0  0  0
   -1.2109   -3.6331   -1.2055 H   0  0  0  0  0  0  0  0  0  0  0  0
   -1.4176   -5.9766   -0.5194 H   0  0  0  0  0  0  0  0  0  0  0  0
    0.0091   -5.2471    0.1773 H   0  0  0  0  0  0  0  0  0  0  0  0
   -1.2109   -4.8566    2.2665 H   0  0  0  0  0  0  0  0  0  0  0  0
   -3.4443   -6.3156    0.8730 H   0  0  0  0  0  0  0  0  0  0  0  0
   -3.4443   -5.8247    2.5499 H   0  0  0  0  0  0  0  0  0  0  0  0
   -3.4442   -4.6179    1.2863 H   0  0  0  0  0  0  0  0  0  0  0  0
   -1.4176   -7.6910    1.2756 H   0  0  0  0  0  0  0  0  0  0  0  0
    0.8157   -6.2319    2.6691 H   0  0  0  0  0  0  0  0  0  0  0  0
    0.8157   -7.9296    2.2557 H   0  0  0  0  0  0  0  0  0  0  0  0
    0.8157   -6.7228    0.9922 H   0  0  0  0  0  0  0  0  0  0  0  0
   -1.2109   -8.2686    3.6481 H   0  0  0  0  0  0  0  0  0  0  0  0
   -1.2109   -6.5709    4.0615 H   0  0  0  0  0  0  0  0  0  0  0  0
   -3.4443   -7.5391    4.3449 H   0  0  0  0  0  0  0  0  0  0  0  0
   -3.4443   -6.3323    3.0813 H   0  0  0  0  0  0  0  0  0  0  0  0
   -4.6643   -8.3368    2.3749 H   0  0  0  0  0  0  0  0  0  0  0  0
   -3.2376   -8.0982    1.3948 H   0  0  0  0  0  0  0  0  0  0  0  0
   -3.4443  -10.4417    2.0808 H   0  0  0  0  0  0  0  0  0  0  0  0
   -2.0176   -9.7122    2.7775 H   0  0  0  0  0  0  0  0  0  0  0  0
   -3.2376  -11.0193    4.4534 H   0  0  0  0  0  0  0  0  0  0  0  0
   -3.2376   -9.3216    4.8667 H   0  0  0  0  0  0  0  0  0  0  0  0
   -5.4709  -10.2898    5.1501 H   0  0  0  0  0  0  0  0  0  0  0  0
   -5.4709   -9.0830    3.8865 H   0  0  0  0  0  0  0  0  0  0  0  0
   -5.2643  -12.0557    3.4636 H   0  0  0  0  0  0  0  0  0  0  0  0
   -6.6910  -11.0875    3.1802 H   0  0  0  0  0  0  0  0  0  0  0  0
   -5.2643  -10.8489    2.2000 H   0  0  0  0  0  0  0  0  0  0  0  0
  1  2  1  0  0  0  0
  1 19  1  0  0  0  0
  1 20  1  0  0  0  0
  1 21  1  0  0  0  0
  2  3  1  0  0  0  0
  2 22  1  0  0  0  0
  2 23  1  0  0  0  0
  3  4  1  0  0  0  0
  3 24  1  0  0  0  0
  3 25  1  0  0  0  0
  4  5  1  0  0  0  0
  4 26  1  0  0  0  0
  4 27  1  0  0  0  0
  5  6  1  0  0  0  0
  5 28  1  0  0  0  0
  5 29  1  0  0  0  0
  6  7  1  0  0  0  0
  6 30  1  0  0  0  0
  6 31  1  0  0  0  0
  7  8  1  0  0  0  0
  7 32  1  0  0  0  0
  7 33  1  0  0  0  0
  8  9  1  0  0  0  0
  8 10  1  0  0  0  0
  8 34  1  0  0  0  0
  9 35  1  0  0  0  0
  9 36  1  0  0  0  0
  9 37  1  0  0  0  0
 10 11  1  0  0  0  0
 10 12  1  0  0  0  0
 10 38  1  0  0  0  0
 11 39  1  0  0  0  0
 11 40  1  0  0  0  0
 11 41  1  0  0  0  0
 12 13  1  0  0  0  0
 12 42  1  0  0  0  0
 12 43  1  0  0  0  0
 13 14  1  0  0  0  0
 13 44  1  0  0  0  0
 13 45  1  0  0  0  0
 14 15  1  0  0  0  0
 14 46  1  0  0  0  0
 14 47  1  0  0  0  0
 15 16  1  0  0  0  0
 15 48  1  0  0  0  0
 15 49  1  0  0  0  0
 16 17  1  0  0  0  0
 16 50  1  0  0  0  0
 16 51  1  0  0  0  0
 17 18  1  0  0  0  0
 17 52  1  0  0  0  0
 17 53  1  0  0  0  0
 18 54  1  0  0  0  0
 18 55  1  0  0  0  0
 18 56  1  0  0  0  0
M  END
