
 OpenBabel03132514253D

 82 86  0  0  0  0  0  0  0  0999 V2000
    0.9833   -0.0437    0.0884 C   0  0  0  0  0  0  0  0  0  0  0  0
    0.4766    1.3851    0.1997 C   0  0  0  0  0  0  0  0  0  0  0  0
   -0.5994    1.4507    1.1741 C   0  0  0  0  0  0  0  0  0  0  0  0
   -1.8527    1.4860    0.6955 C   0  0  0  0  0  0  0  0  0  0  0  0
   -3.0199    1.5564    1.6456 C   0  0  0  0  0  0  0  0  0  0  0  0
   -3.8252    0.7453    2.6476 C   0  0  0  0  0  0  0  0  0  0  0  0
   -3.5178   -0.4661    2.8781 O   0  0  0  0  0  0  0  0  0  0  0  0
   -4.9211    1.3411    3.3262 O   0  0  0  0  0  0  0  0  0  0  0  0
   -4.0075    2.6206    1.1624 C   0  0  0  0  0  0  0  0  0  0  0  0
   -3.7824    3.9135    1.9442 C   0  0  0  0  0  0  0  0  0  0  0  0
   -3.2671    4.9983    0.9964 C   0  0  0  0  0  0  0  0  0  0  0  0
   -4.4627    5.1921    0.0781 C   0  0  0  0  0  0  0  0  0  0  0  0
    1.2414    4.7075    0.7397 C   0  0  0  0  0  0  0  0  0  0  0  0
    0.5760    5.6589    0.1324 C   0  0  0  0  0  0  0  0  0  0  0  0
   -0.0370    6.7797    0.9321 C   0  0  0  0  0  0  0  0  0  0  0  0
   -1.5520    6.7923    0.7143 C   0  0  0  0  0  0  0  0  0  0  0  0
   -1.8649    6.3335   -0.7007 C   0  0  0  0  0  0  0  0  0  0  0  0
   -1.1930    7.2765   -1.6854 C   0  0  0  0  0  0  0  0  0  0  0  0
   -1.3384    4.9136   -0.9220 C   0  0  0  0  0  0  0  0  0  0  0  0
   -2.0043    4.0151   -0.0322 C   0  0  0  0  0  0  0  0  0  0  0  0
   -3.4192    3.9505   -0.2198 C   0  0  0  0  0  0  0  0  0  0  0  0
   -3.9756    3.0146    0.6917 O   0  0  0  0  0  0  0  0  0  0  0  0
   -4.0299    5.3315    0.0299 C   0  0  0  0  0  0  0  0  0  0  0  0
   -3.7830    5.7467    1.4711 C   0  0  0  0  0  0  0  0  0  0  0  0
   -5.5270    5.2797   -0.2274 C   0  0  0  0  0  0  0  0  0  0  0  0
   -6.0719    4.1909   -0.5917 O   0  0  0  0  0  0  0  0  0  0  0  0
   -6.3169    6.4479   -0.0607 O   0  0  0  0  0  0  0  0  0  0  0  0
   -3.3817    6.3462   -0.9171 C   0  0  0  0  0  0  0  0  0  0  0  0
   -3.9289    7.7356   -0.6329 C   0  0  0  0  0  0  0  0  0  0  0  0
   -1.1666    4.9395    2.3326 C   0  0  0  0  0  0  0  0  0  0  0  0
   -2.2181    5.8478    1.7163 C   0  0  0  0  0  0  0  0  0  0  0  0
   -2.8891    6.6614    2.8108 C   0  0  0  0  0  0  0  0  0  0  0  0
    1.8540    3.5877   -0.0599 C   0  0  0  0  0  0  0  0  0  0  0  0
    1.6083    2.2759    0.6422 C   0  0  0  0  0  0  0  0  0  0  0  0
    2.8466    1.4616    0.3045 C   0  0  0  0  0  0  0  0  0  0  0  0
    1.3801    2.5797    2.0104 O   0  0  0  0  0  0  0  0  0  0  0  0
    0.6266   -0.4787   -0.8218 H   0  0  0  0  0  0  0  0  0  0  0  0
    0.6266   -0.6144    0.9202 H   0  0  0  0  0  0  0  0  0  0  0  0
    2.0533   -0.0437    0.0884 H   0  0  0  0  0  0  0  0  0  0  0  0
    0.1093    1.7091   -0.7516 H   0  0  0  0  0  0  0  0  0  0  0  0
   -0.5361    0.5330    1.7207 H   0  0  0  0  0  0  0  0  0  0  0  0
   -0.4520    2.3346    1.7589 H   0  0  0  0  0  0  0  0  0  0  0  0
   -1.9675    0.5269    0.2352 H   0  0  0  0  0  0  0  0  0  0  0  0
   -1.9175    2.3461    0.0623 H   0  0  0  0  0  0  0  0  0  0  0  0
   -5.4509    0.8074    3.9854 H   0  0  0  0  0  0  0  0  0  0  0  0
   -3.8549    2.8025    0.1191 H   0  0  0  0  0  0  0  0  0  0  0  0
   -5.0084    2.2771    1.3210 H   0  0  0  0  0  0  0  0  0  0  0  0
   -4.7055    4.2312    2.3822 H   0  0  0  0  0  0  0  0  0  0  0  0
   -3.0618    3.7427    2.7165 H   0  0  0  0  0  0  0  0  0  0  0  0
   -4.3721    6.1280   -0.4326 H   0  0  0  0  0  0  0  0  0  0  0  0
   -4.4954    4.3971   -0.6373 H   0  0  0  0  0  0  0  0  0  0  0  0
   -5.3621    5.1876    0.6577 H   0  0  0  0  0  0  0  0  0  0  0  0
    0.4678    5.6401   -0.9320 H   0  0  0  0  0  0  0  0  0  0  0  0
    0.3771    7.7134    0.6132 H   0  0  0  0  0  0  0  0  0  0  0  0
    0.1728    6.6328    1.9710 H   0  0  0  0  0  0  0  0  0  0  0  0
   -1.9248    7.7850    0.8575 H   0  0  0  0  0  0  0  0  0  0  0  0
   -1.5630    8.2695   -1.5376 H   0  0  0  0  0  0  0  0  0  0  0  0
   -0.1349    7.2629   -1.5270 H   0  0  0  0  0  0  0  0  0  0  0  0
   -1.4080    6.9608   -2.6849 H   0  0  0  0  0  0  0  0  0  0  0  0
   -1.5243    4.6176   -1.9333 H   0  0  0  0  0  0  0  0  0  0  0  0
   -0.2857    4.8897   -0.7315 H   0  0  0  0  0  0  0  0  0  0  0  0
   -1.8408    4.3843    0.9587 H   0  0  0  0  0  0  0  0  0  0  0  0
   -1.6006    3.0352   -0.1798 H   0  0  0  0  0  0  0  0  0  0  0  0
   -3.6325    3.6420   -1.2220 H   0  0  0  0  0  0  0  0  0  0  0  0
   -3.7764    3.3027    1.6283 H   0  0  0  0  0  0  0  0  0  0  0  0
   -4.2098    6.7129    1.6420 H   0  0  0  0  0  0  0  0  0  0  0  0
   -4.2357    5.0353    2.1298 H   0  0  0  0  0  0  0  0  0  0  0  0
   -2.7298    5.7843    1.6561 H   0  0  0  0  0  0  0  0  0  0  0  0
   -7.3019    6.4139   -0.2300 H   0  0  0  0  0  0  0  0  0  0  0  0
   -3.6016    6.0823   -1.9304 H   0  0  0  0  0  0  0  0  0  0  0  0
   -4.9883    7.7393   -0.7833 H   0  0  0  0  0  0  0  0  0  0  0  0
   -3.7115    8.0043    0.3798 H   0  0  0  0  0  0  0  0  0  0  0  0
   -0.4329    5.5337    2.8360 H   0  0  0  0  0  0  0  0  0  0  0  0
   -1.6326    4.2788    3.0335 H   0  0  0  0  0  0  0  0  0  0  0  0
   -3.3551    6.0007    3.5117 H   0  0  0  0  0  0  0  0  0  0  0  0
   -2.1554    7.2556    3.3143 H   0  0  0  0  0  0  0  0  0  0  0  0
   -3.6293    7.3008    2.3770 H   0  0  0  0  0  0  0  0  0  0  0  0
    2.6249    3.8499   -0.7541 H   0  0  0  0  0  0  0  0  0  0  0  0
    3.7195    1.9892    0.6277 H   0  0  0  0  0  0  0  0  0  0  0  0
    2.7975    0.5152    0.8012 H   0  0  0  0  0  0  0  0  0  0  0  0
    2.8944    1.3072   -0.7533 H   0  0  0  0  0  0  0  0  0  0  0  0
    2.1118    3.1725    2.3468 H   0  0  0  0  0  0  0  0  0  0  0  0
  1  2  1  0  0  0  0
  1 37  1  0  0  0  0
  1 38  1  0  0  0  0
  1 39  1  0  0  0  0
  2  3  1  0  0  0  0
  2 34  1  0  0  0  0
  2 40  1  0  0  0  0
  3  4  1  0  0  0  0
  3 41  1  0  0  0  0
  3 42  1  0  0  0  0
  4  5  1  0  0  0  0
  4 43  1  0  0  0  0
  4 44  1  0  0  0  0
  5  6  1  0  0  0  0
  5  9  1  0  0  0  0
  5 33  1  0  0  0  0
  6  7  2  0  0  0  0
  6  8  1  0  0  0  0
  8 45  1  0  0  0  0
  9 10  1  0  0  0  0
  9 46  1  0  0  0  0
  9 47  1  0  0  0  0
 10 11  1  0  0  0  0
 10 48  1  0  0  0  0
 10 49  1  0  0  0  0
 11 12  1  0  0  0  0
 11 13  1  0  0  0  0
 11 31  1  0  0  0  0
 12 50  1  0  0  0  0
 12 51  1  0  0  0  0
 12 52  1  0  0  0  0
 13 14  2  0  0  0  0
 13 33  1  0  0  0  0
 14 15  1  0  0  0  0
 14 53  1  0  0  0  0
 15 16  1  0  0  0  0
 15 54  1  0  0  0  0
 15 55  1  0  0  0  0
 16 17  1  0  0  0  0
 16 31  1  0  0  0  0
 16 56  1  0  0  0  0
 17 18  1  0  0  0  0
 17 19  1  0  0  0  0
 17 28  1  0  0  0  0
 18 57  1  0  0  0  0
 18 58  1  0  0  0  0
 18 59  1  0  0  0  0
 19 20  1  0  0  0  0
 19 60  1  0  0  0  0
 19 61  1  0  0  0  0
 20 21  1  0  0  0  0
 20 62  1  0  0  0  0
 20 63  1  0  0  0  0
 21 22  1  0  0  0  0
 21 23  1  0  0  0  0
 21 64  1  0  0  0  0
 22 65  1  0  0  0  0
 23 24  1  0  0  0  0
 23 25  1  0  0  0  0
 23 28  1  0  0  0  0
 24 66  1  0  0  0  0
 24 67  1  0  0  0  0
 24 68  1  0  0  0  0
 25 26  2  0  0  0  0
 25 27  1  0  0  0  0
 27 69  1  0  0  0  0
 28 29  1  0  0  0  0
 28 70  1  0  0  0  0
 29 30  1  0  0  0  0
 29 71  1  0  0  0  0
 29 72  1  0  0  0  0
 30 31  1  0  0  0  0
 30 73  1  0  0  0  0
 30 74  1  0  0  0  0
 31 32  1  0  0  0  0
 32 75  1  0  0  0  0
 32 76  1  0  0  0  0
 32 77  1  0  0  0  0
 33 34  1  0  0  0  0
 33 78  1  0  0  0  0
 34 35  1  0  0  0  0
 34 36  1  0  0  0  0
 35 79  1  0  0  0  0
 35 80  1  0  0  0  0
 35 81  1  0  0  0  0
 36 82  1  0  0  0  0
M  END
