
 OpenBabel03132514253D

 49 53  0  0  0  0  0  0  0  0999 V2000
    1.0818   -0.0408   -0.0404 C   0  0  0  0  0  0  0  0  0  0  0  0
    0.5752   -0.3125    1.3666 C   0  0  0  0  0  0  0  0  0  0  0  0
    1.2454    0.4655    2.1342 C   0  0  0  0  0  0  0  0  0  0  0  0
    1.9881    0.0250    3.1274 C   0  0  0  0  0  0  0  0  0  0  0  0
    2.0623   -1.3510    3.3710 C   0  0  0  0  0  0  0  0  0  0  0  0
    2.7134   -2.1370    4.2573 O   0  0  0  0  0  0  0  0  0  0  0  0
    2.4332   -3.3877    4.0209 C   0  0  0  0  0  0  0  0  0  0  0  0
    1.5822   -3.4838    2.9643 C   0  0  0  0  0  0  0  0  0  0  0  0
    1.3317   -2.2059    2.5236 C   0  0  0  0  0  0  0  0  0  0  0  0
    0.5729   -1.6284    1.5059 C   0  0  0  0  0  0  0  0  0  0  0  0
   -1.0325    1.1122   -0.9894 C   0  0  0  0  0  0  0  0  0  0  0  0
   -0.4223    1.9075    0.1532 C   0  0  0  0  0  0  0  0  0  0  0  0
   -1.1104    1.5327    1.4556 C   0  0  0  0  0  0  0  0  0  0  0  0
   -4.9300   -0.1410    3.3754 C   0  0  0  0  0  0  0  0  0  0  0  0
   -3.5797    0.0703    2.7102 C   0  0  0  0  0  0  0  0  0  0  0  0
   -2.5087   -0.6957    3.5109 C   0  0  0  0  0  0  0  0  0  0  0  0
   -1.0773   -0.2149    3.2059 C   0  0  0  0  0  0  0  0  0  0  0  0
   -0.8566    0.0375    1.7382 C   0  0  0  0  0  0  0  0  0  0  0  0
   -3.3006    1.5476    2.6428 C   0  0  0  0  0  0  0  0  0  0  0  0
   -4.5205    2.2741    2.6588 O   0  0  0  0  0  0  0  0  0  0  0  0
   -2.4639    1.9663    3.8408 C   0  0  0  0  0  0  0  0  0  0  0  0
   -1.2439    1.2397    3.8433 O   0  0  0  0  0  0  0  0  0  0  0  0
   -2.5284    1.8412    1.3413 C   0  0  0  0  0  0  0  0  0  0  0  0
    0.7252    0.9126   -0.3701 H   0  0  0  0  0  0  0  0  0  0  0  0
    0.7252   -0.8030   -0.7013 H   0  0  0  0  0  0  0  0  0  0  0  0
    2.1518   -0.0408   -0.0404 H   0  0  0  0  0  0  0  0  0  0  0  0
    1.1989    1.5201    1.9595 H   0  0  0  0  0  0  0  0  0  0  0  0
    2.5301    0.7125    3.7426 H   0  0  0  0  0  0  0  0  0  0  0  0
    2.8167   -4.2176    4.5769 H   0  0  0  0  0  0  0  0  0  0  0  0
    1.1820   -4.3866    2.5523 H   0  0  0  0  0  0  0  0  0  0  0  0
    0.9223   -2.0412    0.5827 H   0  0  0  0  0  0  0  0  0  0  0  0
   -0.5481    1.3760   -1.9062 H   0  0  0  0  0  0  0  0  0  0  0  0
   -0.9022    0.0662   -0.8053 H   0  0  0  0  0  0  0  0  0  0  0  0
   -0.5525    2.9535   -0.0309 H   0  0  0  0  0  0  0  0  0  0  0  0
    0.6220    1.6853    0.2247 H   0  0  0  0  0  0  0  0  0  0  0  0
   -5.6904    0.3466    2.8019 H   0  0  0  0  0  0  0  0  0  0  0  0
   -5.1408   -1.1887    3.4296 H   0  0  0  0  0  0  0  0  0  0  0  0
   -3.5711   -0.3086    1.7096 H   0  0  0  0  0  0  0  0  0  0  0  0
   -2.5698   -1.7255    3.2271 H   0  0  0  0  0  0  0  0  0  0  0  0
   -2.6999   -0.5595    4.5548 H   0  0  0  0  0  0  0  0  0  0  0  0
   -0.4022   -0.9878    3.5089 H   0  0  0  0  0  0  0  0  0  0  0  0
   -0.8988    0.6941    3.7414 H   0  0  0  0  0  0  0  0  0  0  0  0
   -1.5236   -0.5666    1.1595 H   0  0  0  0  0  0  0  0  0  0  0  0
   -5.0787    2.0056    1.8738 H   0  0  0  0  0  0  0  0  0  0  0  0
   -2.2549    3.0140    3.7812 H   0  0  0  0  0  0  0  0  0  0  0  0
   -3.0033    1.7609    4.7418 H   0  0  0  0  0  0  0  0  0  0  0  0
   -1.4393    0.2605    3.8990 H   0  0  0  0  0  0  0  0  0  0  0  0
   -2.6191    2.8876    1.1371 H   0  0  0  0  0  0  0  0  0  0  0  0
   -2.9461    1.2503    0.5531 H   0  0  0  0  0  0  0  0  0  0  0  0
  1  2  1  0  0  0  0
  1 24  1  0  0  0  0
  1 25  1  0  0  0  0
  1 26  1  0  0  0  0
  2  3  1  0  0  0  0
  2 10  1  0  0  0  0
  2 18  1  0  0  0  0
  3  4  2  0  0  0  0
  3 27  1  0  0  0  0
  4  5  1  0  0  0  0
  4 28  1  0  0  0  0
  5  6  1  0  0  0  0
  5  9  2  0  0  0  0
  6  7  1  0  0  0  0
  7  8  2  0  0  0  0
  7 29  1  0  0  0  0
  8  9  1  0  0  0  0
  8 30  1  0  0  0  0
  9 10  1  0  0  0  0
 10 11  1  0  0  0  0
 10 31  1  0  0  0  0
 11 12  1  0  0  0  0
 11 32  1  0  0  0  0
 11 33  1  0  0  0  0
 12 13  1  0  0  0  0
 12 34  1  0  0  0  0
 12 35  1  0  0  0  0
 13 14  1  0  0  0  0
 13 18  1  0  0  0  0
 13 23  1  0  0  0  0
 14 15  1  0  0  0  0
 14 36  1  0  0  0  0
 14 37  1  0  0  0  0
 15 16  1  0  0  0  0
 15 19  1  0  0  0  0
 15 38  1  0  0  0  0
 16 17  1  0  0  0  0
 16 39  1  0  0  0  0
 16 40  1  0  0  0  0
 17 18  1  0  0  0  0
 17 41  1  0  0  0  0
 17 42  1  0  0  0  0
 18 43  1  0  0  0  0
 19 20  1  0  0  0  0
 19 21  1  0  0  0  0
 19 23  1  0  0  0  0
 20 44  1  0  0  0  0
 21 22  1  0  0  0  0
 21 45  1  0  0  0  0
 21 46  1  0  0  0  0
 22 47  1  0  0  0  0
 23 48  1  0  0  0  0
 23 49  1  0  0  0  0
M  END
