
 OpenBabel03132512093D

 34 35  0  0  0  0  0  0  0  0999 V2000
   -1.8980    0.0790    0.0130 O   0  0  0  0  0  0  0  0  0  0  0  0
   -0.6980    0.1040   -0.0030 C   0  0  0  0  0  0  0  0  0  0  0  0
    0.2150    1.2620   -0.1220 C   0  0  0  0  0  0  0  0  0  0  0  0
    1.5890    0.6940    0.1770 C   0  0  0  0  0  0  0  0  0  0  0  0
    2.6307    1.3240   -0.5540 O   0  0  0  0  0  0  0  0  0  0  0  0
    2.3759    1.1978   -1.9453 C   0  0  0  0  0  0  0  0  0  0  0  0
    2.3065   -0.2841   -2.3217 O   0  0  0  0  0  0  0  0  0  0  0  0
    1.2194   -0.9007   -1.6285 C   0  0  0  0  0  0  0  0  0  0  0  0
    1.4505   -0.6578   -0.1459 C   0  0  0  0  0  0  0  0  0  0  0  0
    0.4124   -1.2737    0.6021 O   0  0  0  0  0  0  0  0  0  0  0  0
   -0.0604   -0.3483   -1.9421 C   0  0  0  0  0  0  0  0  0  0  0  0
   -1.0667   -1.0466   -1.2236 O   0  0  0  0  0  0  0  0  0  0  0  0
   -0.0867    1.1310   -1.5504 C   0  0  0  0  0  0  0  0  0  0  0  0
    0.0959    1.2571   -0.1478 O   0  0  0  0  0  0  0  0  0  0  0  0
    1.0393    1.8654   -2.2848 C   0  0  0  0  0  0  0  0  0  0  0  0
    1.0670    3.2265   -1.8810 O   0  0  0  0  0  0  0  0  0  0  0  0
    1.4220   -0.7750   -0.1580 C   0  0  0  0  0  0  0  0  0  0  0  0
   -0.0000   -1.0440    0.0660 O   0  0  0  0  0  0  0  0  0  0  0  0
    0.1658    1.7217   -1.0870 H   0  0  0  0  0  0  0  0  0  0  0  0
   -0.0428    2.0213    0.5864 H   0  0  0  0  0  0  0  0  0  0  0  0
    1.8463    0.8281    1.2069 H   0  0  0  0  0  0  0  0  0  0  0  0
    3.1642    1.6714   -2.4922 H   0  0  0  0  0  0  0  0  0  0  0  0
    1.2073   -1.9407   -1.8797 H   0  0  0  0  0  0  0  0  0  0  0  0
    2.3929   -1.0752    0.1413 H   0  0  0  0  0  0  0  0  0  0  0  0
    1.4529    0.3947    0.0470 H   0  0  0  0  0  0  0  0  0  0  0  0
   -0.4684   -0.8836    0.3337 H   0  0  0  0  0  0  0  0  0  0  0  0
   -0.2420   -0.4425   -2.9924 H   0  0  0  0  0  0  0  0  0  0  0  0
   -0.8972   -0.9587   -0.2420 H   0  0  0  0  0  0  0  0  0  0  0  0
   -1.0296    1.5569   -1.8231 H   0  0  0  0  0  0  0  0  0  0  0  0
    0.9765    0.8599    0.1107 H   0  0  0  0  0  0  0  0  0  0  0  0
    0.8713    1.8153   -3.3404 H   0  0  0  0  0  0  0  0  0  0  0  0
    1.2238    3.2784   -0.8948 H   0  0  0  0  0  0  0  0  0  0  0  0
    1.7256   -1.0007   -1.1589 H   0  0  0  0  0  0  0  0  0  0  0  0
    2.0270   -1.3803    0.4843 H   0  0  0  0  0  0  0  0  0  0  0  0
  1  2  2  0  0  0  0
  2  3  1  0  0  0  0
  2 18  1  0  0  0  0
  3  4  1  0  0  0  0
  3 19  1  0  0  0  0
  3 20  1  0  0  0  0
  4  5  1  0  0  0  0
  4 17  1  0  0  0  0
  4 21  1  0  0  0  0
  5  6  1  0  0  0  0
  6  7  1  0  0  0  0
  6 15  1  0  0  0  0
  6 22  1  0  0  0  0
  7  8  1  0  0  0  0
  8  9  1  0  0  0  0
  8 11  1  0  0  0  0
  8 23  1  0  0  0  0
  9 10  1  0  0  0  0
  9 24  1  0  0  0  0
  9 25  1  0  0  0  0
 10 26  1  0  0  0  0
 11 12  1  0  0  0  0
 11 13  1  0  0  0  0
 11 27  1  0  0  0  0
 12 28  1  0  0  0  0
 13 14  1  0  0  0  0
 13 15  1  0  0  0  0
 13 29  1  0  0  0  0
 14 30  1  0  0  0  0
 15 16  1  0  0  0  0
 15 31  1  0  0  0  0
 16 32  1  0  0  0  0
 17 18  1  0  0  0  0
 17 33  1  0  0  0  0
 17 34  1  0  0  0  0
M  END
