
 OpenBabel03132514253D

 39 42  0  0  0  0  0  0  0  0999 V2000
    0.5400   -1.9950   -0.0230 O   0  0  0  0  0  0  0  0  0  0  0  0
   -0.2740   -0.9250    0.0000 C   0  0  0  0  0  0  0  0  0  0  0  0
   -1.6760   -1.0520    0.0220 C   0  0  0  0  0  0  0  0  0  0  0  0
   -2.4820    0.0690    0.0180 C   0  0  0  0  0  0  0  0  0  0  0  0
   -3.9947   -0.0776    0.0445 C   0  0  0  0  0  0  0  0  0  0  0  0
   -4.7226   -0.7097    1.0572 N   0  0  0  0  0  0  0  0  0  0  0  0
   -5.9748   -0.6144    0.6935 C   0  0  0  0  0  0  0  0  0  0  0  0
   -7.1394   -1.1557    1.5066 C   0  0  0  0  0  0  0  0  0  0  0  0
   -8.0043   -2.0863    0.9547 C   0  0  0  0  0  0  0  0  0  0  0  0
   -9.2098   -2.2479    1.6777 C   0  0  0  0  0  0  0  0  0  0  0  0
   -9.3907   -1.8630    2.9280 C   0  0  0  0  0  0  0  0  0  0  0  0
   -8.4641   -0.9963    3.4375 C   0  0  0  0  0  0  0  0  0  0  0  0
   -7.3241   -0.6875    2.7354 C   0  0  0  0  0  0  0  0  0  0  0  0
   -6.1142    0.0349   -0.5141 N   0  0  0  0  0  0  0  0  0  0  0  0
   -4.8430    0.3875   -0.9154 C   0  0  0  0  0  0  0  0  0  0  0  0
   -4.4633    1.1447   -2.1775 C   0  0  0  0  0  0  0  0  0  0  0  0
   -3.6221    0.6084   -3.1556 C   0  0  0  0  0  0  0  0  0  0  0  0
   -3.4689    1.2712   -4.3574 C   0  0  0  0  0  0  0  0  0  0  0  0
   -4.0840    2.4340   -4.6244 N   0  0  0  0  0  0  0  0  0  0  0  0
   -4.8708    2.9530   -3.6768 C   0  0  0  0  0  0  0  0  0  0  0  0
   -5.0986    2.3467   -2.4627 C   0  0  0  0  0  0  0  0  0  0  0  0
   -1.9100    1.3170   -0.0100 C   0  0  0  0  0  0  0  0  0  0  0  0
   -0.5360    1.4950   -0.0250 C   0  0  0  0  0  0  0  0  0  0  0  0
    0.2680    0.3460   -0.0100 C   0  0  0  0  0  0  0  0  0  0  0  0
    1.9950    0.4770    0.0120 Cl  0  0  0  0  0  0  0  0  0  0  0  0
    0.1537   -2.9174   -0.0159 H   0  0  0  0  0  0  0  0  0  0  0  0
   -2.1205   -2.0251    0.0420 H   0  0  0  0  0  0  0  0  0  0  0  0
   -7.7810   -2.6332    0.0626 H   0  0  0  0  0  0  0  0  0  0  0  0
  -10.0320   -2.7144    1.1765 H   0  0  0  0  0  0  0  0  0  0  0  0
  -10.2178   -2.2108    3.5108 H   0  0  0  0  0  0  0  0  0  0  0  0
   -8.6291   -0.5521    4.3969 H   0  0  0  0  0  0  0  0  0  0  0  0
   -6.5784   -0.0642    3.1829 H   0  0  0  0  0  0  0  0  0  0  0  0
   -6.9851    0.2182   -1.0123 H   0  0  0  0  0  0  0  0  0  0  0  0
   -3.1007   -0.3083   -2.9750 H   0  0  0  0  0  0  0  0  0  0  0  0
   -2.8354    0.8411   -5.1047 H   0  0  0  0  0  0  0  0  0  0  0  0
   -5.3490    3.8899   -3.8727 H   0  0  0  0  0  0  0  0  0  0  0  0
   -5.7563    2.7952   -1.7477 H   0  0  0  0  0  0  0  0  0  0  0  0
   -2.5447    2.1783   -0.0206 H   0  0  0  0  0  0  0  0  0  0  0  0
   -0.1040    2.4737   -0.0472 H   0  0  0  0  0  0  0  0  0  0  0  0
  1  2  1  0  0  0  0
  1 26  1  0  0  0  0
  2  3  1  0  0  0  0
  2 24  2  0  0  0  0
  3  4  2  0  0  0  0
  3 27  1  0  0  0  0
  4  5  1  0  0  0  0
  4 22  1  0  0  0  0
  5  6  1  0  0  0  0
  5 15  2  0  0  0  0
  6  7  2  0  0  0  0
  7  8  1  0  0  0  0
  7 14  1  0  0  0  0
  8  9  1  0  0  0  0
  8 13  2  0  0  0  0
  9 10  2  0  0  0  0
  9 28  1  0  0  0  0
 10 11  1  0  0  0  0
 10 29  1  0  0  0  0
 11 12  2  0  0  0  0
 11 30  1  0  0  0  0
 12 13  1  0  0  0  0
 12 31  1  0  0  0  0
 13 32  1  0  0  0  0
 14 15  1  0  0  0  0
 14 33  1  0  0  0  0
 15 16  1  0  0  0  0
 16 17  1  0  0  0  0
 16 21  2  0  0  0  0
 17 18  2  0  0  0  0
 17 34  1  0  0  0  0
 18 19  1  0  0  0  0
 18 35  1  0  0  0  0
 19 20  2  0  0  0  0
 20 21  1  0  0  0  0
 20 36  1  0  0  0  0
 21 37  1  0  0  0  0
 22 23  2  0  0  0  0
 22 38  1  0  0  0  0
 23 24  1  0  0  0  0
 23 39  1  0  0  0  0
 24 25  1  0  0  0  0
M  END
