
 OpenBabel03132512093D

 66 70  0  0  0  0  0  0  0  0999 V2000
    0.9423   -0.0703   -0.0416 C   0  0  0  0  0  0  0  0  0  0  0  0
    0.3389   -1.6361   -0.7199 S   0  0  0  0  0  0  0  0  0  0  0  0
    0.8491   -2.7949    0.1399 O   0  0  0  0  0  0  0  0  0  0  0  0
   -1.1915   -1.6361   -0.7199 O   0  0  0  0  0  0  0  0  0  0  0  0
    0.9423   -1.8316   -2.4152 C   0  0  0  0  0  0  0  0  0  0  0  0
    0.4356   -0.6807   -3.2691 C   0  0  0  0  0  0  0  0  0  0  0  0
    0.9256    0.5910   -2.7182 N   0  0  0  0  0  0  0  0  0  0  0  0
    0.4356    1.7040   -3.5441 C   0  0  0  0  0  0  0  0  0  0  0  0
   -1.0844    1.7040   -3.5441 C   0  0  0  0  0  0  0  0  0  0  0  0
   -1.8281    0.5887   -3.5455 C   0  0  0  0  0  0  0  0  0  0  0  0
   -3.1716    1.0381   -3.5607 C   0  0  0  0  0  0  0  0  0  0  0  0
   -3.1389    2.3943   -3.5647 C   0  0  0  0  0  0  0  0  0  0  0  0
   -4.3621    3.2962   -3.5900 C   0  0  0  0  0  0  0  0  0  0  0  0
   -5.3067    3.2230   -2.5483 C   0  0  0  0  0  0  0  0  0  0  0  0
   -6.4142    4.0246   -2.5509 C   0  0  0  0  0  0  0  0  0  0  0  0
   -6.6113    4.9609   -3.5905 C   0  0  0  0  0  0  0  0  0  0  0  0
   -7.7094    5.7826   -3.5687 N   0  0  0  0  0  0  0  0  0  0  0  0
   -7.8293    6.6205   -4.5614 C   0  0  0  0  0  0  0  0  0  0  0  0
   -6.9841    6.7559   -5.6293 N   0  0  0  0  0  0  0  0  0  0  0  0
   -5.9376    5.9671   -5.6705 C   0  0  0  0  0  0  0  0  0  0  0  0
   -5.0170    6.0611   -6.8127 N   0  0  0  0  0  0  0  0  0  0  0  0
   -5.2762    7.0296   -7.8877 C   0  0  0  0  0  0  0  0  0  0  0  0
   -5.3267    8.3740   -7.5559 C   0  0  0  0  0  0  0  0  0  0  0  0
   -5.4022    9.3421   -8.5510 C   0  0  0  0  0  0  0  0  0  0  0  0
   -5.4496    8.9597   -9.8876 C   0  0  0  0  0  0  0  0  0  0  0  0
   -5.5172    9.9363  -10.9162 O   0  0  0  0  0  0  0  0  0  0  0  0
   -5.5651    9.5324  -12.2767 C   0  0  0  0  0  0  0  0  0  0  0  0
   -4.3171    8.7319  -12.6118 C   0  0  0  0  0  0  0  0  0  0  0  0
   -3.1526    9.3684  -12.9290 C   0  0  0  0  0  0  0  0  0  0  0  0
   -2.0384    8.6068  -13.2479 C   0  0  0  0  0  0  0  0  0  0  0  0
   -2.1059    7.2225  -13.2571 C   0  0  0  0  0  0  0  0  0  0  0  0
   -3.2732    6.6451  -12.9218 C   0  0  0  0  0  0  0  0  0  0  0  0
   -3.3441    5.2899  -12.9255 F   0  0  0  0  0  0  0  0  0  0  0  0
   -4.3835    7.3475  -12.5984 C   0  0  0  0  0  0  0  0  0  0  0  0
   -5.4298    7.6103  -10.1979 C   0  0  0  0  0  0  0  0  0  0  0  0
   -5.5065    7.1433  -11.8692 Cl  0  0  0  0  0  0  0  0  0  0  0  0
   -5.3138    6.6304   -9.2231 C   0  0  0  0  0  0  0  0  0  0  0  0
   -5.6674    5.0218   -4.6403 C   0  0  0  0  0  0  0  0  0  0  0  0
   -4.5378    4.1723   -4.6228 C   0  0  0  0  0  0  0  0  0  0  0  0
   -1.8367    2.8323   -3.5426 O   0  0  0  0  0  0  0  0  0  0  0  0
    0.5856    0.0452    0.9606 H   0  0  0  0  0  0  0  0  0  0  0  0
    0.5856    0.7399   -0.6427 H   0  0  0  0  0  0  0  0  0  0  0  0
    2.0123   -0.0703   -0.0416 H   0  0  0  0  0  0  0  0  0  0  0  0
    2.0123   -1.8316   -2.4152 H   0  0  0  0  0  0  0  0  0  0  0  0
    0.5856   -2.7572   -2.8162 H   0  0  0  0  0  0  0  0  0  0  0  0
    0.7923   -0.7962   -4.2713 H   0  0  0  0  0  0  0  0  0  0  0  0
   -0.6344   -0.6807   -3.2691 H   0  0  0  0  0  0  0  0  0  0  0  0
    0.5856    0.7011   -1.7629 H   0  0  0  0  0  0  0  0  0  0  0  0
    0.7923    2.6297   -3.1430 H   0  0  0  0  0  0  0  0  0  0  0  0
    0.7923    1.5885   -4.5462 H   0  0  0  0  0  0  0  0  0  0  0  0
   -1.4815   -0.4236   -3.5370 H   0  0  0  0  0  0  0  0  0  0  0  0
   -4.0474    0.4235   -3.5676 H   0  0  0  0  0  0  0  0  0  0  0  0
   -5.1560    2.5320   -1.7454 H   0  0  0  0  0  0  0  0  0  0  0  0
   -7.1338    3.9427   -1.7633 H   0  0  0  0  0  0  0  0  0  0  0  0
   -8.6786    7.2710   -4.5382 H   0  0  0  0  0  0  0  0  0  0  0  0
   -4.1985    5.4543   -6.8593 H   0  0  0  0  0  0  0  0  0  0  0  0
   -5.3075    8.6690   -6.5275 H   0  0  0  0  0  0  0  0  0  0  0  0
   -5.4239   10.3794   -8.2891 H   0  0  0  0  0  0  0  0  0  0  0  0
   -6.4318    8.9262  -12.4385 H   0  0  0  0  0  0  0  0  0  0  0  0
   -5.6129   10.3978  -12.9042 H   0  0  0  0  0  0  0  0  0  0  0  0
   -3.0999   10.4371  -12.9316 H   0  0  0  0  0  0  0  0  0  0  0  0
   -1.1165    9.0932  -13.4895 H   0  0  0  0  0  0  0  0  0  0  0  0
   -1.2549    6.6310  -13.5230 H   0  0  0  0  0  0  0  0  0  0  0  0
   -5.2920    6.8457  -12.3384 H   0  0  0  0  0  0  0  0  0  0  0  0
   -5.2548    5.5956   -9.4889 H   0  0  0  0  0  0  0  0  0  0  0  0
   -3.8221    4.2155   -5.4170 H   0  0  0  0  0  0  0  0  0  0  0  0
  1  2  1  0  0  0  0
  1 41  1  0  0  0  0
  1 42  1  0  0  0  0
  1 43  1  0  0  0  0
  2  3  2  0  0  0  0
  2  4  2  0  0  0  0
  2  5  1  0  0  0  0
  5  6  1  0  0  0  0
  5 44  1  0  0  0  0
  5 45  1  0  0  0  0
  6  7  1  0  0  0  0
  6 46  1  0  0  0  0
  6 47  1  0  0  0  0
  7  8  1  0  0  0  0
  7 48  1  0  0  0  0
  8  9  1  0  0  0  0
  8 49  1  0  0  0  0
  8 50  1  0  0  0  0
  9 10  2  0  0  0  0
  9 40  1  0  0  0  0
 10 11  1  0  0  0  0
 10 51  1  0  0  0  0
 11 12  2  0  0  0  0
 11 52  1  0  0  0  0
 12 13  1  0  0  0  0
 12 40  1  0  0  0  0
 13 14  1  0  0  0  0
 13 39  2  0  0  0  0
 14 15  2  0  0  0  0
 14 53  1  0  0  0  0
 15 16  1  0  0  0  0
 15 54  1  0  0  0  0
 16 17  1  0  0  0  0
 16 38  2  0  0  0  0
 17 18  2  0  0  0  0
 18 19  1  0  0  0  0
 18 55  1  0  0  0  0
 19 20  2  0  0  0  0
 20 21  1  0  0  0  0
 20 38  1  0  0  0  0
 21 22  1  0  0  0  0
 21 56  1  0  0  0  0
 22 23  1  0  0  0  0
 22 37  2  0  0  0  0
 23 24  2  0  0  0  0
 23 57  1  0  0  0  0
 24 25  1  0  0  0  0
 24 58  1  0  0  0  0
 25 26  1  0  0  0  0
 25 35  2  0  0  0  0
 26 27  1  0  0  0  0
 27 28  1  0  0  0  0
 27 59  1  0  0  0  0
 27 60  1  0  0  0  0
 28 29  1  0  0  0  0
 28 34  2  0  0  0  0
 29 30  2  0  0  0  0
 29 61  1  0  0  0  0
 30 31  1  0  0  0  0
 30 62  1  0  0  0  0
 31 32  2  0  0  0  0
 31 63  1  0  0  0  0
 32 33  1  0  0  0  0
 32 34  1  0  0  0  0
 34 64  1  0  0  0  0
 35 36  1  0  0  0  0
 35 37  1  0  0  0  0
 37 65  1  0  0  0  0
 38 39  1  0  0  0  0
 39 66  1  0  0  0  0
M  END
