
 OpenBabel03132514253D

 66 70  0  0  0  0  0  0  0  0999 V2000
    1.0763   -0.0646   -0.0013 C   0  0  0  0  0  0  0  0  0  0  0  0
    0.4730   -1.0146    1.4163 S   0  0  0  0  0  0  0  0  0  0  0  0
    0.9831   -0.3782    2.7113 O   0  0  0  0  0  0  0  0  0  0  0  0
   -1.0575   -1.0146    1.4163 O   0  0  0  0  0  0  0  0  0  0  0  0
    1.0763   -2.7173    1.3024 C   0  0  0  0  0  0  0  0  0  0  0  0
    0.5696   -3.3494    0.0163 C   0  0  0  0  0  0  0  0  0  0  0  0
    1.0596   -2.5778   -1.1350 N   0  0  0  0  0  0  0  0  0  0  0  0
    0.5696   -3.1891   -2.3789 C   0  0  0  0  0  0  0  0  0  0  0  0
   -0.9504   -3.1891   -2.3789 C   0  0  0  0  0  0  0  0  0  0  0  0
   -1.6940   -4.3045   -2.3793 C   0  0  0  0  0  0  0  0  0  0  0  0
   -3.0376   -3.8550   -2.3949 C   0  0  0  0  0  0  0  0  0  0  0  0
   -3.0048   -2.4988   -2.4002 C   0  0  0  0  0  0  0  0  0  0  0  0
   -4.2281   -1.5970   -2.4262 C   0  0  0  0  0  0  0  0  0  0  0  0
   -5.1727   -1.6692   -1.3845 C   0  0  0  0  0  0  0  0  0  0  0  0
   -6.2803   -0.8678   -1.3880 C   0  0  0  0  0  0  0  0  0  0  0  0
   -6.4775    0.0674   -2.4285 C   0  0  0  0  0  0  0  0  0  0  0  0
   -7.5758    0.8889   -2.4076 N   0  0  0  0  0  0  0  0  0  0  0  0
   -7.6958    1.7258   -3.4012 C   0  0  0  0  0  0  0  0  0  0  0  0
   -6.8506    1.8601   -4.4692 N   0  0  0  0  0  0  0  0  0  0  0  0
   -5.8040    1.0714   -4.5095 C   0  0  0  0  0  0  0  0  0  0  0  0
   -4.8834    1.1644   -5.6518 N   0  0  0  0  0  0  0  0  0  0  0  0
   -5.1427    2.1318   -6.7279 C   0  0  0  0  0  0  0  0  0  0  0  0
   -5.1934    3.4766   -6.3975 C   0  0  0  0  0  0  0  0  0  0  0  0
   -5.2691    4.4436   -7.3936 C   0  0  0  0  0  0  0  0  0  0  0  0
   -5.3163    4.0597   -8.7298 C   0  0  0  0  0  0  0  0  0  0  0  0
   -5.3840    5.0353   -9.7594 O   0  0  0  0  0  0  0  0  0  0  0  0
   -5.4317    4.6299  -11.1195 C   0  0  0  0  0  0  0  0  0  0  0  0
   -4.1837    3.8292  -11.4537 C   0  0  0  0  0  0  0  0  0  0  0  0
   -3.0188    4.4657  -11.7701 C   0  0  0  0  0  0  0  0  0  0  0  0
   -1.9045    3.7040  -12.0882 C   0  0  0  0  0  0  0  0  0  0  0  0
   -1.9721    2.3196  -12.0973 C   0  0  0  0  0  0  0  0  0  0  0  0
   -3.1396    1.7424  -11.7628 C   0  0  0  0  0  0  0  0  0  0  0  0
   -3.2106    0.3872  -11.7664 F   0  0  0  0  0  0  0  0  0  0  0  0
   -4.2501    2.4448  -11.4403 C   0  0  0  0  0  0  0  0  0  0  0  0
   -5.2963    2.7100   -9.0386 C   0  0  0  0  0  0  0  0  0  0  0  0
   -5.3729    2.2413  -10.7095 Cl  0  0  0  0  0  0  0  0  0  0  0  0
   -5.1802    1.7312   -8.0629 C   0  0  0  0  0  0  0  0  0  0  0  0
   -5.5336    0.1273   -3.4784 C   0  0  0  0  0  0  0  0  0  0  0  0
   -4.4039   -0.7220   -3.4600 C   0  0  0  0  0  0  0  0  0  0  0  0
   -1.7027   -2.0609   -2.3784 O   0  0  0  0  0  0  0  0  0  0  0  0
    0.7196    0.9419    0.0661 H   0  0  0  0  0  0  0  0  0  0  0  0
    0.7196   -0.5096   -0.9066 H   0  0  0  0  0  0  0  0  0  0  0  0
    2.1463   -0.0646   -0.0013 H   0  0  0  0  0  0  0  0  0  0  0  0
    2.1463   -2.7173    1.3024 H   0  0  0  0  0  0  0  0  0  0  0  0
    0.7196   -3.2789    2.1404 H   0  0  0  0  0  0  0  0  0  0  0  0
    0.9263   -4.3559   -0.0511 H   0  0  0  0  0  0  0  0  0  0  0  0
   -0.5004   -3.3494    0.0163 H   0  0  0  0  0  0  0  0  0  0  0  0
    0.7196   -1.6183   -1.0708 H   0  0  0  0  0  0  0  0  0  0  0  0
    0.9263   -2.6275   -3.2169 H   0  0  0  0  0  0  0  0  0  0  0  0
    0.9263   -4.1957   -2.4462 H   0  0  0  0  0  0  0  0  0  0  0  0
   -1.3474   -5.3167   -2.3700 H   0  0  0  0  0  0  0  0  0  0  0  0
   -3.9134   -4.4697   -2.4013 H   0  0  0  0  0  0  0  0  0  0  0  0
   -5.0219   -2.3594   -0.5809 H   0  0  0  0  0  0  0  0  0  0  0  0
   -7.0000   -0.9491   -0.6003 H   0  0  0  0  0  0  0  0  0  0  0  0
   -8.5452    2.3761   -3.3787 H   0  0  0  0  0  0  0  0  0  0  0  0
   -4.0647    0.5578   -5.6978 H   0  0  0  0  0  0  0  0  0  0  0  0
   -5.1743    3.7726   -5.3694 H   0  0  0  0  0  0  0  0  0  0  0  0
   -5.2909    5.4811   -7.1328 H   0  0  0  0  0  0  0  0  0  0  0  0
   -6.2984    4.0234  -11.2807 H   0  0  0  0  0  0  0  0  0  0  0  0
   -5.4796    5.4946  -11.7479 H   0  0  0  0  0  0  0  0  0  0  0  0
   -2.9662    5.5344  -11.7728 H   0  0  0  0  0  0  0  0  0  0  0  0
   -0.9824    4.1904  -12.3292 H   0  0  0  0  0  0  0  0  0  0  0  0
   -1.1209    1.7281  -12.3625 H   0  0  0  0  0  0  0  0  0  0  0  0
   -5.1588    1.9431  -11.1808 H   0  0  0  0  0  0  0  0  0  0  0  0
   -5.1210    0.6961   -8.3275 H   0  0  0  0  0  0  0  0  0  0  0  0
   -3.6881   -0.6795   -4.2542 H   0  0  0  0  0  0  0  0  0  0  0  0
  1  2  1  0  0  0  0
  1 41  1  0  0  0  0
  1 42  1  0  0  0  0
  1 43  1  0  0  0  0
  2  3  2  0  0  0  0
  2  4  2  0  0  0  0
  2  5  1  0  0  0  0
  5  6  1  0  0  0  0
  5 44  1  0  0  0  0
  5 45  1  0  0  0  0
  6  7  1  0  0  0  0
  6 46  1  0  0  0  0
  6 47  1  0  0  0  0
  7  8  1  0  0  0  0
  7 48  1  0  0  0  0
  8  9  1  0  0  0  0
  8 49  1  0  0  0  0
  8 50  1  0  0  0  0
  9 10  2  0  0  0  0
  9 40  1  0  0  0  0
 10 11  1  0  0  0  0
 10 51  1  0  0  0  0
 11 12  2  0  0  0  0
 11 52  1  0  0  0  0
 12 13  1  0  0  0  0
 12 40  1  0  0  0  0
 13 14  1  0  0  0  0
 13 39  2  0  0  0  0
 14 15  2  0  0  0  0
 14 53  1  0  0  0  0
 15 16  1  0  0  0  0
 15 54  1  0  0  0  0
 16 17  1  0  0  0  0
 16 38  2  0  0  0  0
 17 18  2  0  0  0  0
 18 19  1  0  0  0  0
 18 55  1  0  0  0  0
 19 20  2  0  0  0  0
 20 21  1  0  0  0  0
 20 38  1  0  0  0  0
 21 22  1  0  0  0  0
 21 56  1  0  0  0  0
 22 23  1  0  0  0  0
 22 37  2  0  0  0  0
 23 24  2  0  0  0  0
 23 57  1  0  0  0  0
 24 25  1  0  0  0  0
 24 58  1  0  0  0  0
 25 26  1  0  0  0  0
 25 35  2  0  0  0  0
 26 27  1  0  0  0  0
 27 28  1  0  0  0  0
 27 59  1  0  0  0  0
 27 60  1  0  0  0  0
 28 29  1  0  0  0  0
 28 34  2  0  0  0  0
 29 30  2  0  0  0  0
 29 61  1  0  0  0  0
 30 31  1  0  0  0  0
 30 62  1  0  0  0  0
 31 32  2  0  0  0  0
 31 63  1  0  0  0  0
 32 33  1  0  0  0  0
 32 34  1  0  0  0  0
 34 64  1  0  0  0  0
 35 36  1  0  0  0  0
 35 37  1  0  0  0  0
 37 65  1  0  0  0  0
 38 39  1  0  0  0  0
 39 66  1  0  0  0  0
M  END
