
 OpenBabel03132512093D

 70 69  0  0  0  0  0  0  0  0999 V2000
    1.0955   -0.0223   -0.0197 C   0  0  0  0  0  0  0  0  0  0  0  0
    0.5888   -1.4461    0.1426 C   0  0  0  0  0  0  0  0  0  0  0  0
    1.0955   -2.0174    1.4569 C   0  0  0  0  0  0  0  0  0  0  0  0
    0.5888   -1.1649    2.6088 C   0  0  0  0  0  0  0  0  0  0  0  0
   -0.9312   -1.1649    2.6088 C   0  0  0  0  0  0  0  0  0  0  0  0
   -1.4379   -2.5887    2.7712 C   0  0  0  0  0  0  0  0  0  0  0  0
   -0.9312   -3.1600    4.0855 C   0  0  0  0  0  0  0  0  0  0  0  0
   -1.4379   -2.3075    5.2374 C   0  0  0  0  0  0  0  0  0  0  0  0
   -2.9579   -2.3075    5.2374 C   0  0  0  0  0  0  0  0  0  0  0  0
   -3.6381   -2.7771    6.3178 C   0  0  0  0  0  0  0  0  0  0  0  0
   -5.1581   -2.7771    6.3178 C   0  0  0  0  0  0  0  0  0  0  0  0
   -5.6648   -4.2010    6.4802 C   0  0  0  0  0  0  0  0  0  0  0  0
   -5.1581   -4.7723    7.7945 C   0  0  0  0  0  0  0  0  0  0  0  0
   -5.6648   -3.9197    8.9464 C   0  0  0  0  0  0  0  0  0  0  0  0
   -7.1848   -3.9197    8.9464 C   0  0  0  0  0  0  0  0  0  0  0  0
   -7.6914   -5.3435    9.1088 C   0  0  0  0  0  0  0  0  0  0  0  0
   -7.1848   -5.9148   10.4230 C   0  0  0  0  0  0  0  0  0  0  0  0
   -7.6915   -5.0623   11.5749 C   0  0  0  0  0  0  0  0  0  0  0  0
   -8.4221   -5.5812   12.4761 O   0  0  0  0  0  0  0  0  0  0  0  0
   -7.3484   -3.6861   11.6442 O   0  0  0  0  0  0  0  0  0  0  0  0
   -7.8217   -2.8896   12.7203 C   0  0  0  0  0  0  0  0  0  0  0  0
   -9.3417   -2.8896   12.7203 C   0  0  0  0  0  0  0  0  0  0  0  0
   -9.8151   -4.2198   12.8720 O   0  0  0  0  0  0  0  0  0  0  0  0
   -9.8484   -2.0371   13.8722 C   0  0  0  0  0  0  0  0  0  0  0  0
   -9.3751   -0.7069   13.7205 O   0  0  0  0  0  0  0  0  0  0  0  0
   -7.6451   -0.7069   13.7205 P   0  0  0  0  0  0  0  0  0  0  0  0
   -7.6451   -0.3809   12.2068 O   0  0  0  0  0  0  0  0  0  0  0  0
   -7.6451    0.5756   14.8815 O   0  0  0  0  0  0  0  0  0  0  0  0
   -5.9151   -0.7069   13.7205 O   0  0  0  0  0  0  0  0  0  0  0  0
    0.7388    0.5779    0.7911 H   0  0  0  0  0  0  0  0  0  0  0  0
    0.7388    0.3799   -0.9449 H   0  0  0  0  0  0  0  0  0  0  0  0
    2.1655   -0.0223   -0.0197 H   0  0  0  0  0  0  0  0  0  0  0  0
   -0.4812   -1.4461    0.1426 H   0  0  0  0  0  0  0  0  0  0  0  0
    0.9455   -2.0463   -0.6682 H   0  0  0  0  0  0  0  0  0  0  0  0
    0.7388   -3.0197    1.5712 H   0  0  0  0  0  0  0  0  0  0  0  0
    2.1655   -2.0174    1.4569 H   0  0  0  0  0  0  0  0  0  0  0  0
    0.9454   -1.5670    3.5340 H   0  0  0  0  0  0  0  0  0  0  0  0
    0.9455   -0.1626    2.4945 H   0  0  0  0  0  0  0  0  0  0  0  0
   -1.2879   -0.5647    3.4197 H   0  0  0  0  0  0  0  0  0  0  0  0
   -1.2879   -0.7627    1.6836 H   0  0  0  0  0  0  0  0  0  0  0  0
   -2.5079   -2.5887    2.7712 H   0  0  0  0  0  0  0  0  0  0  0  0
   -1.0812   -3.1889    1.9603 H   0  0  0  0  0  0  0  0  0  0  0  0
   -1.2879   -4.1623    4.1998 H   0  0  0  0  0  0  0  0  0  0  0  0
    0.1388   -3.1600    4.0855 H   0  0  0  0  0  0  0  0  0  0  0  0
   -1.0812   -2.7096    6.1625 H   0  0  0  0  0  0  0  0  0  0  0  0
   -1.0812   -1.3051    5.1230 H   0  0  0  0  0  0  0  0  0  0  0  0
   -3.4929   -1.9380    4.3875 H   0  0  0  0  0  0  0  0  0  0  0  0
   -3.1031   -3.1465    7.1677 H   0  0  0  0  0  0  0  0  0  0  0  0
   -5.5148   -2.1770    7.1287 H   0  0  0  0  0  0  0  0  0  0  0  0
   -5.5148   -2.3750    5.3926 H   0  0  0  0  0  0  0  0  0  0  0  0
   -6.7348   -4.2010    6.4802 H   0  0  0  0  0  0  0  0  0  0  0  0
   -5.3081   -4.8011    5.6693 H   0  0  0  0  0  0  0  0  0  0  0  0
   -5.5148   -5.7746    7.9088 H   0  0  0  0  0  0  0  0  0  0  0  0
   -4.0881   -4.7723    7.7945 H   0  0  0  0  0  0  0  0  0  0  0  0
   -5.3081   -4.3219    9.8716 H   0  0  0  0  0  0  0  0  0  0  0  0
   -5.3081   -2.9174    8.8321 H   0  0  0  0  0  0  0  0  0  0  0  0
   -7.5414   -3.3196    9.7572 H   0  0  0  0  0  0  0  0  0  0  0  0
   -7.5414   -3.5175    8.0212 H   0  0  0  0  0  0  0  0  0  0  0  0
   -8.7614   -5.3435    9.1088 H   0  0  0  0  0  0  0  0  0  0  0  0
   -7.3348   -5.9437    8.2979 H   0  0  0  0  0  0  0  0  0  0  0  0
   -7.5415   -6.9171   10.5373 H   0  0  0  0  0  0  0  0  0  0  0  0
   -6.1148   -5.9148   10.4230 H   0  0  0  0  0  0  0  0  0  0  0  0
   -7.4651   -3.2918   13.6454 H   0  0  0  0  0  0  0  0  0  0  0  0
   -7.4651   -1.8873   12.6060 H   0  0  0  0  0  0  0  0  0  0  0  0
   -9.6984   -2.4875   11.7951 H   0  0  0  0  0  0  0  0  0  0  0  0
   -9.4817   -4.7807   12.1141 H   0  0  0  0  0  0  0  0  0  0  0  0
  -10.9184   -2.0371   13.8721 H   0  0  0  0  0  0  0  0  0  0  0  0
   -9.4917   -2.4393   14.7973 H   0  0  0  0  0  0  0  0  0  0  0  0
   -8.5879    0.8227   15.1052 H   0  0  0  0  0  0  0  0  0  0  0  0
   -5.5818   -1.4612   13.1547 H   0  0  0  0  0  0  0  0  0  0  0  0
  1  2  1  0  0  0  0
  1 30  1  0  0  0  0
  1 31  1  0  0  0  0
  1 32  1  0  0  0  0
  2  3  1  0  0  0  0
  2 33  1  0  0  0  0
  2 34  1  0  0  0  0
  3  4  1  0  0  0  0
  3 35  1  0  0  0  0
  3 36  1  0  0  0  0
  4  5  1  0  0  0  0
  4 37  1  0  0  0  0
  4 38  1  0  0  0  0
  5  6  1  0  0  0  0
  5 39  1  0  0  0  0
  5 40  1  0  0  0  0
  6  7  1  0  0  0  0
  6 41  1  0  0  0  0
  6 42  1  0  0  0  0
  7  8  1  0  0  0  0
  7 43  1  0  0  0  0
  7 44  1  0  0  0  0
  8  9  1  0  0  0  0
  8 45  1  0  0  0  0
  8 46  1  0  0  0  0
  9 10  2  0  0  0  0
  9 47  1  0  0  0  0
 10 11  1  0  0  0  0
 10 48  1  0  0  0  0
 11 12  1  0  0  0  0
 11 49  1  0  0  0  0
 11 50  1  0  0  0  0
 12 13  1  0  0  0  0
 12 51  1  0  0  0  0
 12 52  1  0  0  0  0
 13 14  1  0  0  0  0
 13 53  1  0  0  0  0
 13 54  1  0  0  0  0
 14 15  1  0  0  0  0
 14 55  1  0  0  0  0
 14 56  1  0  0  0  0
 15 16  1  0  0  0  0
 15 57  1  0  0  0  0
 15 58  1  0  0  0  0
 16 17  1  0  0  0  0
 16 59  1  0  0  0  0
 16 60  1  0  0  0  0
 17 18  1  0  0  0  0
 17 61  1  0  0  0  0
 17 62  1  0  0  0  0
 18 19  2  0  0  0  0
 18 20  1  0  0  0  0
 20 21  1  0  0  0  0
 21 22  1  0  0  0  0
 21 63  1  0  0  0  0
 21 64  1  0  0  0  0
 22 23  1  0  0  0  0
 22 24  1  0  0  0  0
 22 65  1  0  0  0  0
 23 66  1  0  0  0  0
 24 25  1  0  0  0  0
 24 67  1  0  0  0  0
 24 68  1  0  0  0  0
 25 26  1  0  0  0  0
 26 27  2  0  0  0  0
 26 28  1  0  0  0  0
 26 29  1  0  0  0  0
 28 69  1  0  0  0  0
 29 70  1  0  0  0  0
M  END
