
 OpenBabel03142511493D

 20 19  0  0  0  0  0  0  0  0999 V2000
    0.9928   -0.0699   -0.0711 C   0  0  0  0  0  0  0  0  0  0  0  0
    0.5028   -1.4429   -0.2603 N   0  0  0  0  0  0  0  0  0  0  0  0
   -0.3423   -2.0697    0.7663 C   0  0  0  0  0  0  0  0  0  0  0  0
    0.8580   -2.1891   -1.4760 C   0  0  0  0  0  0  0  0  0  0  0  0
    1.6144   -1.6282   -2.3947 N   0  0  0  0  0  0  0  0  0  0  0  0
    0.3680   -3.5621   -1.6651 N   0  0  0  0  0  0  0  0  0  0  0  0
    0.6858   -4.2299   -2.7532 C   0  0  0  0  0  0  0  0  0  0  0  0
    1.5309   -3.6032   -3.7797 N   0  0  0  0  0  0  0  0  0  0  0  0
    0.1958   -5.6029   -2.9423 N   0  0  0  0  0  0  0  0  0  0  0  0
    0.6362    0.3105    0.8632 H   0  0  0  0  0  0  0  0  0  0  0  0
    0.6362    0.5490   -0.8677 H   0  0  0  0  0  0  0  0  0  0  0  0
    2.0628   -0.0699   -0.0711 H   0  0  0  0  0  0  0  0  0  0  0  0
   -1.2874   -2.3321    0.3388 H   0  0  0  0  0  0  0  0  0  0  0  0
    0.1393   -2.9510    1.1354 H   0  0  0  0  0  0  0  0  0  0  0  0
   -0.4939   -1.3821    1.5720 H   0  0  0  0  0  0  0  0  0  0  0  0
    1.9544   -0.6755   -2.2635 H   0  0  0  0  0  0  0  0  0  0  0  0
    1.7773   -4.1210   -4.6233 H   0  0  0  0  0  0  0  0  0  0  0  0
    1.8709   -2.6505   -3.6485 H   0  0  0  0  0  0  0  0  0  0  0  0
   -0.3906   -6.0378   -2.2300 H   0  0  0  0  0  0  0  0  0  0  0  0
    0.4422   -6.1207   -3.7859 H   0  0  0  0  0  0  0  0  0  0  0  0
  1  2  1  0  0  0  0
  1 10  1  0  0  0  0
  1 11  1  0  0  0  0
  1 12  1  0  0  0  0
  2  3  1  0  0  0  0
  2  4  1  0  0  0  0
  3 13  1  0  0  0  0
  3 14  1  0  0  0  0
  3 15  1  0  0  0  0
  4  5  2  0  0  0  0
  4  6  1  0  0  0  0
  5 16  1  0  0  0  0
  6  7  2  0  0  0  0
  7  8  1  0  0  0  0
  7  9  1  0  0  0  0
  8 17  1  0  0  0  0
  8 18  1  0  0  0  0
  9 19  1  0  0  0  0
  9 20  1  0  0  0  0
M  END
