
 OpenBabel03132514253D

 38 39  0  0  0  0  0  0  0  0999 V2000
    0.9555    0.0640   -0.0626 C   0  0  0  0  0  0  0  0  0  0  0  0
    0.2753    0.5875   -1.1180 C   0  0  0  0  0  0  0  0  0  0  0  0
   -1.2447    0.5875   -1.1180 C   0  0  0  0  0  0  0  0  0  0  0  0
    1.0353    1.1723   -2.2973 C   0  0  0  0  0  0  0  0  0  0  0  0
    2.4480    0.7800   -2.2654 C   0  0  0  0  0  0  0  0  0  0  0  0
    3.1990    1.3350   -3.8228 C   0  0  0  0  0  0  0  0  0  0  0  0
    2.8175    3.0552   -3.6790 C   0  0  0  0  0  0  0  0  0  0  0  0
    3.7271    3.9678   -4.1175 C   0  0  0  0  0  0  0  0  0  0  0  0
    3.4571    5.4443   -3.9848 C   0  0  0  0  0  0  0  0  0  0  0  0
    4.3313    6.3403   -3.7656 O   0  0  0  0  0  0  0  0  0  0  0  0
    1.9570    5.6860   -4.1574 C   0  0  0  0  0  0  0  0  0  0  0  0
    1.1934    4.7211   -3.2954 C   0  0  0  0  0  0  0  0  0  0  0  0
    1.3493    5.3235   -1.9086 C   0  0  0  0  0  0  0  0  0  0  0  0
    1.6229    3.4460   -3.1125 C   0  0  0  0  0  0  0  0  0  0  0  0
    2.1217    2.0864   -3.5740 C   0  0  0  0  0  0  0  0  0  0  0  0
    0.7883    2.5904   -2.2873 C   0  0  0  0  0  0  0  0  0  0  0  0
    0.4205   -0.3476    0.7676 H   0  0  0  0  0  0  0  0  0  0  0  0
    2.0255    0.0640   -0.0626 H   0  0  0  0  0  0  0  0  0  0  0  0
   -1.6014    1.5943   -1.1818 H   0  0  0  0  0  0  0  0  0  0  0  0
   -1.6014    0.0289   -1.9581 H   0  0  0  0  0  0  0  0  0  0  0  0
   -1.6014    0.1393   -0.2143 H   0  0  0  0  0  0  0  0  0  0  0  0
    0.6953    0.7845   -3.2349 H   0  0  0  0  0  0  0  0  0  0  0  0
    2.5440   -0.2800   -2.1556 H   0  0  0  0  0  0  0  0  0  0  0  0
    2.9385    1.2455   -1.4362 H   0  0  0  0  0  0  0  0  0  0  0  0
    2.8524    0.8493   -4.7111 H   0  0  0  0  0  0  0  0  0  0  0  0
    4.2533    1.1544   -3.8516 H   0  0  0  0  0  0  0  0  0  0  0  0
    4.6421    3.6338   -4.5605 H   0  0  0  0  0  0  0  0  0  0  0  0
    1.7208    6.6885   -3.8673 H   0  0  0  0  0  0  0  0  0  0  0  0
    1.6874    5.5394   -5.1825 H   0  0  0  0  0  0  0  0  0  0  0  0
    0.2112    4.6526   -3.7143 H   0  0  0  0  0  0  0  0  0  0  0  0
    0.9835    6.3290   -1.9133 H   0  0  0  0  0  0  0  0  0  0  0  0
    0.7911    4.7441   -1.2032 H   0  0  0  0  0  0  0  0  0  0  0  0
    2.3833    5.3215   -1.6330 H   0  0  0  0  0  0  0  0  0  0  0  0
    1.3909    1.6365   -4.2132 H   0  0  0  0  0  0  0  0  0  0  0  0
    3.0395    2.2065   -4.1107 H   0  0  0  0  0  0  0  0  0  0  0  0
    2.2857    1.4589   -2.7229 H   0  0  0  0  0  0  0  0  0  0  0  0
   -0.1884    2.6888   -2.7129 H   0  0  0  0  0  0  0  0  0  0  0  0
    0.8981    2.9228   -1.2761 H   0  0  0  0  0  0  0  0  0  0  0  0
  1  2  2  0  0  0  0
  1 17  1  0  0  0  0
  1 18  1  0  0  0  0
  2  3  1  0  0  0  0
  2  4  1  0  0  0  0
  3 19  1  0  0  0  0
  3 20  1  0  0  0  0
  3 21  1  0  0  0  0
  4  5  1  0  0  0  0
  4 16  1  0  0  0  0
  4 22  1  0  0  0  0
  5  6  1  0  0  0  0
  5 23  1  0  0  0  0
  5 24  1  0  0  0  0
  6  7  1  0  0  0  0
  6 25  1  0  0  0  0
  6 26  1  0  0  0  0
  7  8  2  0  0  0  0
  7 14  1  0  0  0  0
  8  9  1  0  0  0  0
  8 27  1  0  0  0  0
  9 10  2  0  0  0  0
  9 11  1  0  0  0  0
 11 12  1  0  0  0  0
 11 28  1  0  0  0  0
 11 29  1  0  0  0  0
 12 13  1  0  0  0  0
 12 14  1  0  0  0  0
 12 30  1  0  0  0  0
 13 31  1  0  0  0  0
 13 32  1  0  0  0  0
 13 33  1  0  0  0  0
 14 15  1  0  0  0  0
 14 16  1  0  0  0  0
 15 34  1  0  0  0  0
 15 35  1  0  0  0  0
 15 36  1  0  0  0  0
 16 37  1  0  0  0  0
 16 38  1  0  0  0  0
M  END
