
 OpenBabel03132514253D

 39 40  0  0  0  0  0  0  0  0999 V2000
    0.9607    0.0870    0.0298 C   0  0  0  0  0  0  0  0  0  0  0  0
    0.2805   -0.9542   -0.5216 C   0  0  0  0  0  0  0  0  0  0  0  0
   -1.2395   -0.9542   -0.5216 C   0  0  0  0  0  0  0  0  0  0  0  0
   -1.7462   -1.0066   -1.9537 C   0  0  0  0  0  0  0  0  0  0  0  0
   -1.9951    0.1763   -2.6301 C   0  0  0  0  0  0  0  0  0  0  0  0
   -2.7272    0.0078   -3.8291 C   0  0  0  0  0  0  0  0  0  0  0  0
   -2.8656   -1.1401   -4.4672 C   0  0  0  0  0  0  0  0  0  0  0  0
   -3.3293   -1.1996   -5.8081 O   0  0  0  0  0  0  0  0  0  0  0  0
   -3.4638   -2.4551   -6.4577 C   0  0  0  0  0  0  0  0  0  0  0  0
   -2.7331   -2.7884   -7.5862 C   0  0  0  0  0  0  0  0  0  0  0  0
   -3.1713   -3.9731   -8.2237 C   0  0  0  0  0  0  0  0  0  0  0  0
   -2.7319   -4.2075   -9.6598 C   0  0  0  0  0  0  0  0  0  0  0  0
   -3.2375   -3.0730  -10.5359 C   0  0  0  0  0  0  0  0  0  0  0  0
   -2.3545   -2.2966  -11.2202 C   0  0  0  0  0  0  0  0  0  0  0  0
   -3.9357   -4.8894   -7.6578 C   0  0  0  0  0  0  0  0  0  0  0  0
   -4.5772   -4.5207   -6.5080 C   0  0  0  0  0  0  0  0  0  0  0  0
   -5.5453   -5.3888   -5.9376 O   0  0  0  0  0  0  0  0  0  0  0  0
   -4.2986   -3.3221   -5.8967 C   0  0  0  0  0  0  0  0  0  0  0  0
   -4.9089   -3.0077   -4.6537 O   0  0  0  0  0  0  0  0  0  0  0  0
   -2.5385   -2.2682   -3.7673 C   0  0  0  0  0  0  0  0  0  0  0  0
   -1.9398   -2.1854   -2.5334 C   0  0  0  0  0  0  0  0  0  0  0  0
    0.4257    0.9059    0.4634 H   0  0  0  0  0  0  0  0  0  0  0  0
    2.0307    0.0870    0.0298 H   0  0  0  0  0  0  0  0  0  0  0  0
    0.8155   -1.7731   -0.9553 H   0  0  0  0  0  0  0  0  0  0  0  0
   -1.5962   -1.8088    0.0144 H   0  0  0  0  0  0  0  0  0  0  0  0
   -1.5962   -0.0626   -0.0495 H   0  0  0  0  0  0  0  0  0  0  0  0
   -1.6637    1.1308   -2.2779 H   0  0  0  0  0  0  0  0  0  0  0  0
   -3.2018    0.8706   -4.2480 H   0  0  0  0  0  0  0  0  0  0  0  0
   -1.9117   -2.2031   -7.9434 H   0  0  0  0  0  0  0  0  0  0  0  0
   -1.6634   -4.2436   -9.7044 H   0  0  0  0  0  0  0  0  0  0  0  0
   -3.1350   -5.1350  -10.0093 H   0  0  0  0  0  0  0  0  0  0  0  0
   -4.2879   -2.8850  -10.6145 H   0  0  0  0  0  0  0  0  0  0  0  0
   -2.7104   -1.4980  -11.8370 H   0  0  0  0  0  0  0  0  0  0  0  0
   -1.3041   -2.4846  -11.1417 H   0  0  0  0  0  0  0  0  0  0  0  0
   -4.0469   -5.8678   -8.0765 H   0  0  0  0  0  0  0  0  0  0  0  0
   -6.0188   -5.1262   -5.0968 H   0  0  0  0  0  0  0  0  0  0  0  0
   -4.7093   -2.1367   -4.2048 H   0  0  0  0  0  0  0  0  0  0  0  0
   -2.7518   -3.2292   -4.1865 H   0  0  0  0  0  0  0  0  0  0  0  0
   -1.6267   -3.0790   -2.0350 H   0  0  0  0  0  0  0  0  0  0  0  0
  1  2  2  0  0  0  0
  1 22  1  0  0  0  0
  1 23  1  0  0  0  0
  2  3  1  0  0  0  0
  2 24  1  0  0  0  0
  3  4  1  0  0  0  0
  3 25  1  0  0  0  0
  3 26  1  0  0  0  0
  4  5  1  0  0  0  0
  4 21  2  0  0  0  0
  5  6  2  0  0  0  0
  5 27  1  0  0  0  0
  6  7  1  0  0  0  0
  6 28  1  0  0  0  0
  7  8  1  0  0  0  0
  7 20  2  0  0  0  0
  8  9  1  0  0  0  0
  9 10  1  0  0  0  0
  9 18  2  0  0  0  0
 10 11  2  0  0  0  0
 10 29  1  0  0  0  0
 11 12  1  0  0  0  0
 11 15  1  0  0  0  0
 12 13  1  0  0  0  0
 12 30  1  0  0  0  0
 12 31  1  0  0  0  0
 13 14  2  0  0  0  0
 13 32  1  0  0  0  0
 14 33  1  0  0  0  0
 14 34  1  0  0  0  0
 15 16  2  0  0  0  0
 15 35  1  0  0  0  0
 16 17  1  0  0  0  0
 16 18  1  0  0  0  0
 17 36  1  0  0  0  0
 18 19  1  0  0  0  0
 19 37  1  0  0  0  0
 20 21  1  0  0  0  0
 20 38  1  0  0  0  0
 21 39  1  0  0  0  0
M  END
