
 OpenBabel03132514253D

125131  0  0  0  0  0  0  0  0999 V2000
    1.0664   -0.0728   -0.0171 C   0  0  0  0  0  0  0  0  0  0  0  0
    0.3862    0.9730   -0.5597 C   0  0  0  0  0  0  0  0  0  0  0  0
    1.1462    2.1415   -1.1659 C   0  0  0  0  0  0  0  0  0  0  0  0
    1.9626    2.7422   -0.1714 O   0  0  0  0  0  0  0  0  0  0  0  0
    2.0201    1.6414   -2.3047 C   0  0  0  0  0  0  0  0  0  0  0  0
    3.5059    1.7646   -1.9580 O   0  0  0  0  0  0  0  0  0  0  0  0
    4.3446    1.2426   -3.1242 C   0  0  0  0  0  0  0  0  0  0  0  0
    5.7370    1.3720   -2.8224 C   0  0  0  0  0  0  0  0  0  0  0  0
    6.3755    2.2003   -3.8084 C   0  0  0  0  0  0  0  0  0  0  0  0
    5.2441    3.0860   -4.3889 C   0  0  0  0  0  0  0  0  0  0  0  0
    5.5528    3.6852   -5.7512 C   0  0  0  0  0  0  0  0  0  0  0  0
    5.5302    5.0347   -5.9217 C   0  0  0  0  0  0  0  0  0  0  0  0
    5.8388    5.6339   -7.2840 C   0  0  0  0  0  0  0  0  0  0  0  0
    4.6406    6.4336   -7.7691 C   0  0  0  0  0  0  0  0  0  0  0  0
    7.0474    6.5491   -7.1730 C   0  0  0  0  0  0  0  0  0  0  0  0
    7.3560    7.1484   -8.5353 C   0  0  0  0  0  0  0  0  0  0  0  0
    6.1578    7.9480   -9.0204 C   0  0  0  0  0  0  0  0  0  0  0  0
    6.3019    9.4333   -9.3094 C   0  0  0  0  0  0  0  0  0  0  0  0
    4.9564    7.3343   -9.1958 C   0  0  0  0  0  0  0  0  0  0  0  0
    4.8123    5.8490   -8.9068 C   0  0  0  0  0  0  0  0  0  0  0  0
    3.3196    5.9618   -9.2252 O   0  0  0  0  0  0  0  0  0  0  0  0
    3.1504    6.2678  -10.6110 C   0  0  0  0  0  0  0  0  0  0  0  0
    3.9293    7.5459  -10.8761 C   0  0  0  0  0  0  0  0  0  0  0  0
    3.7661    7.9455  -12.3335 C   0  0  0  0  0  0  0  0  0  0  0  0
    2.2942    8.1777  -12.6335 C   0  0  0  0  0  0  0  0  0  0  0  0
    4.4937    9.1395  -12.5812 O   0  0  0  0  0  0  0  0  0  0  0  0
    4.2960    6.8349  -13.2258 C   0  0  0  0  0  0  0  0  0  0  0  0
    4.7785    5.7793  -12.7079 O   0  0  0  0  0  0  0  0  0  0  0  0
    4.2520    6.9767  -14.6380 O   0  0  0  0  0  0  0  0  0  0  0  0
    3.6738    5.2751  -11.4953 C   0  0  0  0  0  0  0  0  0  0  0  0
    5.1809    5.1345  -11.2687 C   0  0  0  0  0  0  0  0  0  0  0  0
    5.4370    4.7739   -9.8021 C   0  0  0  0  0  0  0  0  0  0  0  0
    6.8350    4.7038   -9.5628 O   0  0  0  0  0  0  0  0  0  0  0  0
    8.1668    5.8021   -6.7198 O   0  0  0  0  0  0  0  0  0  0  0  0
    4.0544    2.0861   -4.3824 O   0  0  0  0  0  0  0  0  0  0  0  0
    4.0022   -0.2202   -3.4040 C   0  0  0  0  0  0  0  0  0  0  0  0
    2.5150   -0.3384   -3.7463 C   0  0  0  0  0  0  0  0  0  0  0  0
    1.6785    0.1744   -2.5724 C   0  0  0  0  0  0  0  0  0  0  0  0
    0.2990    0.0601   -2.8890 O   0  0  0  0  0  0  0  0  0  0  0  0
   -1.1338    0.9730   -0.5597 C   0  0  0  0  0  0  0  0  0  0  0  0
   -1.6404    1.0375   -1.9913 C   0  0  0  0  0  0  0  0  0  0  0  0
   -1.1671   -0.0907   -2.7122 O   0  0  0  0  0  0  0  0  0  0  0  0
   -3.1604    1.0375   -1.9913 C   0  0  0  0  0  0  0  0  0  0  0  0
   -3.6671    2.2450   -1.2197 C   0  0  0  0  0  0  0  0  0  0  0  0
   -3.1604    3.5171   -1.8797 C   0  0  0  0  0  0  0  0  0  0  0  0
   -5.1871    2.2450   -1.2197 C   0  0  0  0  0  0  0  0  0  0  0  0
   -5.6994    3.1063   -0.0629 O   0  0  0  0  0  0  0  0  0  0  0  0
   -5.2691    4.4565   -0.2481 C   0  0  0  0  0  0  0  0  0  0  0  0
   -5.7525    5.2783    0.9357 C   0  0  0  0  0  0  0  0  0  0  0  0
   -7.2697    5.2199    1.0072 C   0  0  0  0  0  0  0  0  0  0  0  0
   -7.7138    3.7763    1.1775 C   0  0  0  0  0  0  0  0  0  0  0  0
   -7.1241    3.2127    2.4601 C   0  0  0  0  0  0  0  0  0  0  0  0
   -3.8533    4.4248   -0.3518 O   0  0  0  0  0  0  0  0  0  0  0  0
   -5.7566    5.0647   -1.4455 C   0  0  0  0  0  0  0  0  0  0  0  0
   -5.2466    4.2827   -2.6583 C   0  0  0  0  0  0  0  0  0  0  0  0
   -5.7000    2.8240   -2.5424 C   0  0  0  0  0  0  0  0  0  0  0  0
   -5.1423    2.0194   -3.7052 C   0  0  0  0  0  0  0  0  0  0  0  0
    0.5314   -0.8953    0.4096 H   0  0  0  0  0  0  0  0  0  0  0  0
    2.1364   -0.0728   -0.0171 H   0  0  0  0  0  0  0  0  0  0  0  0
    0.4509    2.8634   -1.5405 H   0  0  0  0  0  0  0  0  0  0  0  0
    1.3877    3.0712    0.5777 H   0  0  0  0  0  0  0  0  0  0  0  0
    1.8330    2.2375   -3.1733 H   0  0  0  0  0  0  0  0  0  0  0  0
    5.8485    1.8219   -1.8580 H   0  0  0  0  0  0  0  0  0  0  0  0
    6.1920    0.4035   -2.8239 H   0  0  0  0  0  0  0  0  0  0  0  0
    6.8581    1.6198   -4.5667 H   0  0  0  0  0  0  0  0  0  0  0  0
    7.1321    2.8068   -3.3560 H   0  0  0  0  0  0  0  0  0  0  0  0
    5.0490    3.9334   -3.7654 H   0  0  0  0  0  0  0  0  0  0  0  0
    5.7878    3.0456   -6.5762 H   0  0  0  0  0  0  0  0  0  0  0  0
    5.2951    5.6743   -5.0967 H   0  0  0  0  0  0  0  0  0  0  0  0
    6.0489    4.8486   -7.9798 H   0  0  0  0  0  0  0  0  0  0  0  0
    4.4306    7.2189   -7.0733 H   0  0  0  0  0  0  0  0  0  0  0  0
    4.8579    6.8554   -8.7281 H   0  0  0  0  0  0  0  0  0  0  0  0
    3.7899    5.7893   -7.8473 H   0  0  0  0  0  0  0  0  0  0  0  0
    6.8373    7.3344   -6.4772 H   0  0  0  0  0  0  0  0  0  0  0  0
    8.2067    7.7926   -8.4572 H   0  0  0  0  0  0  0  0  0  0  0  0
    7.5661    6.3631   -9.2311 H   0  0  0  0  0  0  0  0  0  0  0  0
    6.0626    9.6219  -10.3351 H   0  0  0  0  0  0  0  0  0  0  0  0
    5.6353    9.9854   -8.6803 H   0  0  0  0  0  0  0  0  0  0  0  0
    7.3092    9.7382   -9.1163 H   0  0  0  0  0  0  0  0  0  0  0  0
    4.1129    7.8972   -9.5373 H   0  0  0  0  0  0  0  0  0  0  0  0
    2.1038    6.3738  -10.8064 H   0  0  0  0  0  0  0  0  0  0  0  0
    3.5562    8.3277  -10.2480 H   0  0  0  0  0  0  0  0  0  0  0  0
    4.9654    7.3824  -10.6649 H   0  0  0  0  0  0  0  0  0  0  0  0
    1.9212    8.9595  -12.0054 H   0  0  0  0  0  0  0  0  0  0  0  0
    2.1794    8.4590  -13.6595 H   0  0  0  0  0  0  0  0  0  0  0  0
    1.7460    7.2780  -12.4469 H   0  0  0  0  0  0  0  0  0  0  0  0
    4.1451    9.8702  -11.9942 H   0  0  0  0  0  0  0  0  0  0  0  0
    4.6006    6.2461  -15.2250 H   0  0  0  0  0  0  0  0  0  0  0  0
    3.4909    5.5674  -12.5082 H   0  0  0  0  0  0  0  0  0  0  0  0
    3.1951    4.3377  -11.3028 H   0  0  0  0  0  0  0  0  0  0  0  0
    5.6678    6.0582  -11.5026 H   0  0  0  0  0  0  0  0  0  0  0  0
    5.5674    4.3621  -11.9002 H   0  0  0  0  0  0  0  0  0  0  0  0
    4.9950    3.8242   -9.5839 H   0  0  0  0  0  0  0  0  0  0  0  0
    7.2527    5.5894   -9.7655 H   0  0  0  0  0  0  0  0  0  0  0  0
    4.2171   -0.8093   -2.5370 H   0  0  0  0  0  0  0  0  0  0  0  0
    4.5872   -0.5723   -4.2278 H   0  0  0  0  0  0  0  0  0  0  0  0
    2.2732   -1.3635   -3.9354 H   0  0  0  0  0  0  0  0  0  0  0  0
    2.3022    0.2450   -4.6176 H   0  0  0  0  0  0  0  0  0  0  0  0
    1.8939   -0.4068   -1.7003 H   0  0  0  0  0  0  0  0  0  0  0  0
   -1.4904    0.0776   -0.0951 H   0  0  0  0  0  0  0  0  0  0  0  0
   -1.2838    1.9329   -2.4559 H   0  0  0  0  0  0  0  0  0  0  0  0
   -0.1671   -0.0907   -2.7122 H   0  0  0  0  0  0  0  0  0  0  0  0
   -3.5171    1.0828   -2.9991 H   0  0  0  0  0  0  0  0  0  0  0  0
   -3.5171    0.1420   -1.5267 H   0  0  0  0  0  0  0  0  0  0  0  0
   -3.3104    2.1997   -0.2119 H   0  0  0  0  0  0  0  0  0  0  0  0
   -3.5171    3.5625   -2.8875 H   0  0  0  0  0  0  0  0  0  0  0  0
   -3.5171    4.3672   -1.3365 H   0  0  0  0  0  0  0  0  0  0  0  0
   -2.0904    3.5171   -1.8797 H   0  0  0  0  0  0  0  0  0  0  0  0
   -5.5399    1.2414   -1.1051 H   0  0  0  0  0  0  0  0  0  0  0  0
   -5.3374    4.8815    1.8386 H   0  0  0  0  0  0  0  0  0  0  0  0
   -5.4399    6.2946    0.8159 H   0  0  0  0  0  0  0  0  0  0  0  0
   -7.6100    5.7984    1.8406 H   0  0  0  0  0  0  0  0  0  0  0  0
   -7.6848    5.6167    0.1044 H   0  0  0  0  0  0  0  0  0  0  0  0
   -8.7818    3.7352    1.2278 H   0  0  0  0  0  0  0  0  0  0  0  0
   -7.3735    3.1978    0.3441 H   0  0  0  0  0  0  0  0  0  0  0  0
   -7.4367    2.1964    2.5799 H   0  0  0  0  0  0  0  0  0  0  0  0
   -6.0561    3.2537    2.4097 H   0  0  0  0  0  0  0  0  0  0  0  0
   -5.4082    6.0750   -1.5001 H   0  0  0  0  0  0  0  0  0  0  0  0
   -6.8265    5.0565   -1.4399 H   0  0  0  0  0  0  0  0  0  0  0  0
   -4.1780    4.3260   -2.6912 H   0  0  0  0  0  0  0  0  0  0  0  0
   -5.6449    4.7113   -3.5541 H   0  0  0  0  0  0  0  0  0  0  0  0
   -6.7687    2.7779   -2.5636 H   0  0  0  0  0  0  0  0  0  0  0  0
   -5.4597    1.0012   -3.6191 H   0  0  0  0  0  0  0  0  0  0  0  0
   -5.5013    2.4283   -4.6265 H   0  0  0  0  0  0  0  0  0  0  0  0
   -4.0733    2.0624   -3.6884 H   0  0  0  0  0  0  0  0  0  0  0  0
  1  2  2  0  0  0  0
  1 58  1  0  0  0  0
  1 59  1  0  0  0  0
  2  3  1  0  0  0  0
  2 40  1  0  0  0  0
  3  4  1  0  0  0  0
  3  5  1  0  0  0  0
  3 60  1  0  0  0  0
  4 61  1  0  0  0  0
  5  6  1  0  0  0  0
  5 38  1  0  0  0  0
  5 62  1  0  0  0  0
  6  7  1  0  0  0  0
  7  8  1  0  0  0  0
  7 35  1  0  0  0  0
  7 36  1  0  0  0  0
  8  9  1  0  0  0  0
  8 63  1  0  0  0  0
  8 64  1  0  0  0  0
  9 10  1  0  0  0  0
  9 65  1  0  0  0  0
  9 66  1  0  0  0  0
 10 11  1  0  0  0  0
 10 35  1  0  0  0  0
 10 67  1  0  0  0  0
 11 12  2  0  0  0  0
 11 68  1  0  0  0  0
 12 13  1  0  0  0  0
 12 69  1  0  0  0  0
 13 14  1  0  0  0  0
 13 15  1  0  0  0  0
 13 70  1  0  0  0  0
 14 71  1  0  0  0  0
 14 72  1  0  0  0  0
 14 73  1  0  0  0  0
 15 16  1  0  0  0  0
 15 34  1  0  0  0  0
 15 74  1  0  0  0  0
 16 17  1  0  0  0  0
 16 75  1  0  0  0  0
 16 76  1  0  0  0  0
 17 18  1  0  0  0  0
 17 19  2  0  0  0  0
 18 77  1  0  0  0  0
 18 78  1  0  0  0  0
 18 79  1  0  0  0  0
 19 20  1  0  0  0  0
 19 80  1  0  0  0  0
 20 21  1  0  0  0  0
 20 32  1  0  0  0  0
 20 34  1  0  0  0  0
 21 22  1  0  0  0  0
 22 23  1  0  0  0  0
 22 30  1  0  0  0  0
 22 81  1  0  0  0  0
 23 24  1  0  0  0  0
 23 82  1  0  0  0  0
 23 83  1  0  0  0  0
 24 25  1  0  0  0  0
 24 26  1  0  0  0  0
 24 27  1  0  0  0  0
 25 84  1  0  0  0  0
 25 85  1  0  0  0  0
 25 86  1  0  0  0  0
 26 87  1  0  0  0  0
 27 28  2  0  0  0  0
 27 29  1  0  0  0  0
 29 88  1  0  0  0  0
 30 31  1  0  0  0  0
 30 89  1  0  0  0  0
 30 90  1  0  0  0  0
 31 32  1  0  0  0  0
 31 91  1  0  0  0  0
 31 92  1  0  0  0  0
 32 33  1  0  0  0  0
 32 93  1  0  0  0  0
 33 94  1  0  0  0  0
 36 37  1  0  0  0  0
 36 95  1  0  0  0  0
 36 96  1  0  0  0  0
 37 38  1  0  0  0  0
 37 97  1  0  0  0  0
 37 98  1  0  0  0  0
 38 39  1  0  0  0  0
 38 99  1  0  0  0  0
 39 40  1  0  0  0  0
 40 41  1  0  0  0  0
 40100  1  0  0  0  0
 41 42  1  0  0  0  0
 41 43  1  0  0  0  0
 41101  1  0  0  0  0
 42102  1  0  0  0  0
 43 44  1  0  0  0  0
 43103  1  0  0  0  0
 43104  1  0  0  0  0
 44 45  1  0  0  0  0
 44 46  1  0  0  0  0
 44105  1  0  0  0  0
 45106  1  0  0  0  0
 45107  1  0  0  0  0
 45108  1  0  0  0  0
 46 47  1  0  0  0  0
 46 56  1  0  0  0  0
 46109  1  0  0  0  0
 47 48  1  0  0  0  0
 48 49  1  0  0  0  0
 48 53  1  0  0  0  0
 48 54  1  0  0  0  0
 49 50  1  0  0  0  0
 49110  1  0  0  0  0
 49111  1  0  0  0  0
 50 51  1  0  0  0  0
 50112  1  0  0  0  0
 50113  1  0  0  0  0
 51 52  1  0  0  0  0
 51114  1  0  0  0  0
 51115  1  0  0  0  0
 52 53  1  0  0  0  0
 52116  1  0  0  0  0
 52117  1  0  0  0  0
 54 55  1  0  0  0  0
 54118  1  0  0  0  0
 54119  1  0  0  0  0
 55 56  1  0  0  0  0
 55120  1  0  0  0  0
 55121  1  0  0  0  0
 56 57  1  0  0  0  0
 56122  1  0  0  0  0
 57123  1  0  0  0  0
 57124  1  0  0  0  0
 57125  1  0  0  0  0
M  END
