
 OpenBabel03132512093D

 81 85  0  0  0  0  0  0  0  0999 V2000
    1.0616    0.0543   -0.0571 C   0  0  0  0  0  0  0  0  0  0  0  0
    0.5549   -0.0715    1.3704 C   0  0  0  0  0  0  0  0  0  0  0  0
   -0.9575   -0.2232    1.3682 C   0  0  0  0  0  0  0  0  0  0  0  0
    1.1616   -1.2369    1.9911 C   0  0  0  0  0  0  0  0  0  0  0  0
    0.4105   -2.3465    2.0669 C   0  0  0  0  0  0  0  0  0  0  0  0
    0.9714   -3.5939    2.6991 C   0  0  0  0  0  0  0  0  0  0  0  0
    1.9596   -4.7289    2.4854 C   0  0  0  0  0  0  0  0  0  0  0  0
    2.6460   -4.7811    1.4171 O   0  0  0  0  0  0  0  0  0  0  0  0
    2.1157   -5.7309    3.4794 O   0  0  0  0  0  0  0  0  0  0  0  0
   -0.0610   -4.1872    3.6600 C   0  0  0  0  0  0  0  0  0  0  0  0
    0.2773   -3.7683    5.0896 C   0  0  0  0  0  0  0  0  0  0  0  0
   -0.8224   -2.8488    5.6243 C   0  0  0  0  0  0  0  0  0  0  0  0
   -2.0131   -3.7926    5.6674 C   0  0  0  0  0  0  0  0  0  0  0  0
    0.1297    1.4178    4.4553 C   0  0  0  0  0  0  0  0  0  0  0  0
   -0.9006    1.1229    5.2091 C   0  0  0  0  0  0  0  0  0  0  0  0
   -0.6914    0.6957    6.6392 C   0  0  0  0  0  0  0  0  0  0  0  0
   -1.2604   -0.7110    6.8398 C   0  0  0  0  0  0  0  0  0  0  0  0
   -2.4740   -0.8998    5.9443 C   0  0  0  0  0  0  0  0  0  0  0  0
   -3.5236    0.1353    6.3150 C   0  0  0  0  0  0  0  0  0  0  0  0
   -2.0702   -0.7201    4.4790 C   0  0  0  0  0  0  0  0  0  0  0  0
   -1.1258   -1.7303    4.1184 C   0  0  0  0  0  0  0  0  0  0  0  0
   -1.6256   -3.0638    4.2346 C   0  0  0  0  0  0  0  0  0  0  0  0
   -0.6219   -3.9828    3.8292 O   0  0  0  0  0  0  0  0  0  0  0  0
   -2.0114   -3.3383    5.6900 C   0  0  0  0  0  0  0  0  0  0  0  0
   -0.7785   -3.2385    6.5735 C   0  0  0  0  0  0  0  0  0  0  0  0
   -2.5992   -4.7352    5.8057 C   0  0  0  0  0  0  0  0  0  0  0  0
   -3.0510   -2.3060    6.1375 C   0  0  0  0  0  0  0  0  0  0  0  0
   -3.3926   -2.5236    7.6026 C   0  0  0  0  0  0  0  0  0  0  0  0
    0.9232   -1.0746    5.6996 C   0  0  0  0  0  0  0  0  0  0  0  0
   -0.1943   -1.7473    6.4800 C   0  0  0  0  0  0  0  0  0  0  0  0
    0.3716   -2.3552    7.7530 C   0  0  0  0  0  0  0  0  0  0  0  0
   -0.0798    1.8447    3.0261 C   0  0  0  0  0  0  0  0  0  0  0  0
    0.9363    1.1639    2.1441 C   0  0  0  0  0  0  0  0  0  0  0  0
    0.7049    0.9689   -0.4829 H   0  0  0  0  0  0  0  0  0  0  0  0
    0.7049   -0.7717   -0.6363 H   0  0  0  0  0  0  0  0  0  0  0  0
    2.1316    0.0543   -0.0571 H   0  0  0  0  0  0  0  0  0  0  0  0
   -1.4014    0.6356    0.9095 H   0  0  0  0  0  0  0  0  0  0  0  0
   -1.2272   -1.1006    0.8184 H   0  0  0  0  0  0  0  0  0  0  0  0
   -1.3086   -0.3113    2.3751 H   0  0  0  0  0  0  0  0  0  0  0  0
    1.9797   -1.4978    1.3528 H   0  0  0  0  0  0  0  0  0  0  0  0
    1.4372   -0.9648    2.9886 H   0  0  0  0  0  0  0  0  0  0  0  0
    0.2813   -2.6266    1.0423 H   0  0  0  0  0  0  0  0  0  0  0  0
   -0.4679   -2.0878    2.6204 H   0  0  0  0  0  0  0  0  0  0  0  0
    2.7658   -6.4776    3.3388 H   0  0  0  0  0  0  0  0  0  0  0  0
   -1.0358   -3.8283    3.4035 H   0  0  0  0  0  0  0  0  0  0  0  0
   -0.0444   -5.2546    3.5873 H   0  0  0  0  0  0  0  0  0  0  0  0
    0.3482   -4.6378    5.7091 H   0  0  0  0  0  0  0  0  0  0  0  0
    1.2123   -3.2482    5.0972 H   0  0  0  0  0  0  0  0  0  0  0  0
   -2.7674   -3.3861    6.3082 H   0  0  0  0  0  0  0  0  0  0  0  0
   -2.4096   -3.9118    4.6807 H   0  0  0  0  0  0  0  0  0  0  0  0
   -1.7004   -4.7443    6.0435 H   0  0  0  0  0  0  0  0  0  0  0  0
   -1.8910    1.1853    4.8091 H   0  0  0  0  0  0  0  0  0  0  0  0
   -1.1919    1.3795    7.2926 H   0  0  0  0  0  0  0  0  0  0  0  0
    0.3554    0.6920    6.8609 H   0  0  0  0  0  0  0  0  0  0  0  0
   -1.5493   -0.8366    7.8624 H   0  0  0  0  0  0  0  0  0  0  0  0
   -3.8056    0.0063    7.3390 H   0  0  0  0  0  0  0  0  0  0  0  0
   -3.1208    1.1170    6.1769 H   0  0  0  0  0  0  0  0  0  0  0  0
   -4.3831    0.0113    5.6899 H   0  0  0  0  0  0  0  0  0  0  0  0
   -2.9369   -0.8034    3.8572 H   0  0  0  0  0  0  0  0  0  0  0  0
   -1.6280    0.2453    4.3466 H   0  0  0  0  0  0  0  0  0  0  0  0
   -0.3076   -1.6465    4.8029 H   0  0  0  0  0  0  0  0  0  0  0  0
   -0.8324   -1.5687    3.1022 H   0  0  0  0  0  0  0  0  0  0  0  0
   -2.4866   -3.1778    3.6097 H   0  0  0  0  0  0  0  0  0  0  0  0
    0.1830   -3.8764    4.4132 H   0  0  0  0  0  0  0  0  0  0  0  0
   -1.0518   -3.4294    7.5902 H   0  0  0  0  0  0  0  0  0  0  0  0
   -0.0540   -3.9596    6.2574 H   0  0  0  0  0  0  0  0  0  0  0  0
   -0.3618   -2.2561    6.4946 H   0  0  0  0  0  0  0  0  0  0  0  0
   -3.4691   -4.8085    5.1869 H   0  0  0  0  0  0  0  0  0  0  0  0
   -1.8738   -5.4548    5.4879 H   0  0  0  0  0  0  0  0  0  0  0  0
   -2.8684   -4.9258    6.8236 H   0  0  0  0  0  0  0  0  0  0  0  0
   -3.9388   -2.4132    5.5499 H   0  0  0  0  0  0  0  0  0  0  0  0
   -3.7932   -3.5071    7.7331 H   0  0  0  0  0  0  0  0  0  0  0  0
   -2.5077   -2.4174    8.1947 H   0  0  0  0  0  0  0  0  0  0  0  0
    1.3625   -0.3040    6.2981 H   0  0  0  0  0  0  0  0  0  0  0  0
    1.6689   -1.7995    5.4479 H   0  0  0  0  0  0  0  0  0  0  0  0
    1.1173   -3.0801    7.5013 H   0  0  0  0  0  0  0  0  0  0  0  0
    0.8109   -1.5847    8.3515 H   0  0  0  0  0  0  0  0  0  0  0  0
   -0.4150   -2.8287    8.3024 H   0  0  0  0  0  0  0  0  0  0  0  0
   -0.6134    2.7578    2.8638 H   0  0  0  0  0  0  0  0  0  0  0  0
    1.1204    1.8872    1.3774 H   0  0  0  0  0  0  0  0  0  0  0  0
    1.7589    0.8932    2.7725 H   0  0  0  0  0  0  0  0  0  0  0  0
  1  2  1  0  0  0  0
  1 34  1  0  0  0  0
  1 35  1  0  0  0  0
  1 36  1  0  0  0  0
  2  3  1  0  0  0  0
  2  4  1  0  0  0  0
  2 33  1  0  0  0  0
  3 37  1  0  0  0  0
  3 38  1  0  0  0  0
  3 39  1  0  0  0  0
  4  5  1  0  0  0  0
  4 40  1  0  0  0  0
  4 41  1  0  0  0  0
  5  6  1  0  0  0  0
  5 42  1  0  0  0  0
  5 43  1  0  0  0  0
  6  7  1  0  0  0  0
  6 10  1  0  0  0  0
  6 32  1  0  0  0  0
  7  8  2  0  0  0  0
  7  9  1  0  0  0  0
  9 44  1  0  0  0  0
 10 11  1  0  0  0  0
 10 45  1  0  0  0  0
 10 46  1  0  0  0  0
 11 12  1  0  0  0  0
 11 47  1  0  0  0  0
 11 48  1  0  0  0  0
 12 13  1  0  0  0  0
 12 14  1  0  0  0  0
 12 30  1  0  0  0  0
 13 49  1  0  0  0  0
 13 50  1  0  0  0  0
 13 51  1  0  0  0  0
 14 15  2  0  0  0  0
 14 32  1  0  0  0  0
 15 16  1  0  0  0  0
 15 52  1  0  0  0  0
 16 17  1  0  0  0  0
 16 53  1  0  0  0  0
 16 54  1  0  0  0  0
 17 18  1  0  0  0  0
 17 30  1  0  0  0  0
 17 55  1  0  0  0  0
 18 19  1  0  0  0  0
 18 20  1  0  0  0  0
 18 27  1  0  0  0  0
 19 56  1  0  0  0  0
 19 57  1  0  0  0  0
 19 58  1  0  0  0  0
 20 21  1  0  0  0  0
 20 59  1  0  0  0  0
 20 60  1  0  0  0  0
 21 22  1  0  0  0  0
 21 61  1  0  0  0  0
 21 62  1  0  0  0  0
 22 23  1  0  0  0  0
 22 24  1  0  0  0  0
 22 63  1  0  0  0  0
 23 64  1  0  0  0  0
 24 25  1  0  0  0  0
 24 26  1  0  0  0  0
 24 27  1  0  0  0  0
 25 65  1  0  0  0  0
 25 66  1  0  0  0  0
 25 67  1  0  0  0  0
 26 68  1  0  0  0  0
 26 69  1  0  0  0  0
 26 70  1  0  0  0  0
 27 28  1  0  0  0  0
 27 71  1  0  0  0  0
 28 29  1  0  0  0  0
 28 72  1  0  0  0  0
 28 73  1  0  0  0  0
 29 30  1  0  0  0  0
 29 74  1  0  0  0  0
 29 75  1  0  0  0  0
 30 31  1  0  0  0  0
 31 76  1  0  0  0  0
 31 77  1  0  0  0  0
 31 78  1  0  0  0  0
 32 33  1  0  0  0  0
 32 79  1  0  0  0  0
 33 80  1  0  0  0  0
 33 81  1  0  0  0  0
M  END
