
 OpenBabel03132512093D

 54 53  0  0  0  0  0  0  0  0999 V2000
    0.9295    0.0272   -0.0655 C   0  0  0  0  0  0  0  0  0  0  0  0
    0.4228   -0.0190    1.3668 C   0  0  0  0  0  0  0  0  0  0  0  0
    0.9295    1.1983    2.1230 C   0  0  0  0  0  0  0  0  0  0  0  0
    0.4228    2.4618    1.4468 C   0  0  0  0  0  0  0  0  0  0  0  0
   -1.0972    2.4618    1.4468 C   0  0  0  0  0  0  0  0  0  0  0  0
   -1.6038    2.4156    2.8792 C   0  0  0  0  0  0  0  0  0  0  0  0
   -1.0972    3.6330    3.6353 C   0  0  0  0  0  0  0  0  0  0  0  0
   -1.6038    4.8965    2.9592 C   0  0  0  0  0  0  0  0  0  0  0  0
   -3.1238    4.8965    2.9592 C   0  0  0  0  0  0  0  0  0  0  0  0
   -3.8040    5.8973    3.5809 C   0  0  0  0  0  0  0  0  0  0  0  0
   -5.3240    5.8973    3.5809 C   0  0  0  0  0  0  0  0  0  0  0  0
   -5.8307    5.8511    5.0132 C   0  0  0  0  0  0  0  0  0  0  0  0
   -5.3241    7.0684    5.7694 C   0  0  0  0  0  0  0  0  0  0  0  0
   -5.8307    8.3319    5.0932 C   0  0  0  0  0  0  0  0  0  0  0  0
   -7.3507    8.3319    5.0932 C   0  0  0  0  0  0  0  0  0  0  0  0
   -7.8574    8.2857    6.5256 C   0  0  0  0  0  0  0  0  0  0  0  0
   -7.3507    9.5030    7.2817 C   0  0  0  0  0  0  0  0  0  0  0  0
   -7.8574   10.7666    6.6056 C   0  0  0  0  0  0  0  0  0  0  0  0
   -8.5881   11.5828    7.2499 O   0  0  0  0  0  0  0  0  0  0  0  0
   -7.5144   11.0350    5.2541 O   0  0  0  0  0  0  0  0  0  0  0  0
    0.5729    0.9166   -0.5415 H   0  0  0  0  0  0  0  0  0  0  0  0
    0.5729   -0.8298   -0.5978 H   0  0  0  0  0  0  0  0  0  0  0  0
    1.9995    0.0272   -0.0655 H   0  0  0  0  0  0  0  0  0  0  0  0
   -0.6472   -0.0190    1.3668 H   0  0  0  0  0  0  0  0  0  0  0  0
    0.7795   -0.9085    1.8428 H   0  0  0  0  0  0  0  0  0  0  0  0
    0.5728    1.1658    3.1313 H   0  0  0  0  0  0  0  0  0  0  0  0
    1.9995    1.1983    2.1230 H   0  0  0  0  0  0  0  0  0  0  0  0
    0.7795    3.3188    1.9792 H   0  0  0  0  0  0  0  0  0  0  0  0
    0.7795    2.4944    0.4386 H   0  0  0  0  0  0  0  0  0  0  0  0
   -1.4538    3.3513    0.9709 H   0  0  0  0  0  0  0  0  0  0  0  0
   -1.4538    1.6049    0.9145 H   0  0  0  0  0  0  0  0  0  0  0  0
   -2.6738    2.4156    2.8792 H   0  0  0  0  0  0  0  0  0  0  0  0
   -1.2472    1.5262    3.3551 H   0  0  0  0  0  0  0  0  0  0  0  0
   -1.4538    3.6004    4.6436 H   0  0  0  0  0  0  0  0  0  0  0  0
   -0.0272    3.6330    3.6353 H   0  0  0  0  0  0  0  0  0  0  0  0
   -1.2472    5.7534    3.4915 H   0  0  0  0  0  0  0  0  0  0  0  0
   -1.2472    4.9290    1.9509 H   0  0  0  0  0  0  0  0  0  0  0  0
   -3.6588    4.1093    2.4702 H   0  0  0  0  0  0  0  0  0  0  0  0
   -3.2690    6.6844    4.0698 H   0  0  0  0  0  0  0  0  0  0  0  0
   -5.6807    6.7867    3.1049 H   0  0  0  0  0  0  0  0  0  0  0  0
   -5.6807    5.0403    3.0486 H   0  0  0  0  0  0  0  0  0  0  0  0
   -6.9007    5.8511    5.0132 H   0  0  0  0  0  0  0  0  0  0  0  0
   -5.4740    4.9616    5.4892 H   0  0  0  0  0  0  0  0  0  0  0  0
   -5.6807    7.0359    6.7777 H   0  0  0  0  0  0  0  0  0  0  0  0
   -4.2541    7.0684    5.7694 H   0  0  0  0  0  0  0  0  0  0  0  0
   -5.4741    9.1889    5.6255 H   0  0  0  0  0  0  0  0  0  0  0  0
   -5.4741    8.3644    4.0849 H   0  0  0  0  0  0  0  0  0  0  0  0
   -7.7074    9.2214    4.6173 H   0  0  0  0  0  0  0  0  0  0  0  0
   -7.7074    7.4750    4.5609 H   0  0  0  0  0  0  0  0  0  0  0  0
   -8.9274    8.2857    6.5256 H   0  0  0  0  0  0  0  0  0  0  0  0
   -7.5007    7.3963    7.0015 H   0  0  0  0  0  0  0  0  0  0  0  0
   -7.7074    9.4705    8.2900 H   0  0  0  0  0  0  0  0  0  0  0  0
   -6.2807    9.5030    7.2817 H   0  0  0  0  0  0  0  0  0  0  0  0
   -7.8477   11.8663    4.8092 H   0  0  0  0  0  0  0  0  0  0  0  0
  1  2  1  0  0  0  0
  1 21  1  0  0  0  0
  1 22  1  0  0  0  0
  1 23  1  0  0  0  0
  2  3  1  0  0  0  0
  2 24  1  0  0  0  0
  2 25  1  0  0  0  0
  3  4  1  0  0  0  0
  3 26  1  0  0  0  0
  3 27  1  0  0  0  0
  4  5  1  0  0  0  0
  4 28  1  0  0  0  0
  4 29  1  0  0  0  0
  5  6  1  0  0  0  0
  5 30  1  0  0  0  0
  5 31  1  0  0  0  0
  6  7  1  0  0  0  0
  6 32  1  0  0  0  0
  6 33  1  0  0  0  0
  7  8  1  0  0  0  0
  7 34  1  0  0  0  0
  7 35  1  0  0  0  0
  8  9  1  0  0  0  0
  8 36  1  0  0  0  0
  8 37  1  0  0  0  0
  9 10  2  0  0  0  0
  9 38  1  0  0  0  0
 10 11  1  0  0  0  0
 10 39  1  0  0  0  0
 11 12  1  0  0  0  0
 11 40  1  0  0  0  0
 11 41  1  0  0  0  0
 12 13  1  0  0  0  0
 12 42  1  0  0  0  0
 12 43  1  0  0  0  0
 13 14  1  0  0  0  0
 13 44  1  0  0  0  0
 13 45  1  0  0  0  0
 14 15  1  0  0  0  0
 14 46  1  0  0  0  0
 14 47  1  0  0  0  0
 15 16  1  0  0  0  0
 15 48  1  0  0  0  0
 15 49  1  0  0  0  0
 16 17  1  0  0  0  0
 16 50  1  0  0  0  0
 16 51  1  0  0  0  0
 17 18  1  0  0  0  0
 17 52  1  0  0  0  0
 17 53  1  0  0  0  0
 18 19  2  0  0  0  0
 18 20  1  0  0  0  0
 20 54  1  0  0  0  0
M  END
