
 OpenBabel03132514253D

 34 35  0  0  0  0  0  0  0  0999 V2000
    0.9787   -0.0975    0.0071 C   0  0  0  0  0  0  0  0  0  0  0  0
    0.5054    0.9634    0.8237 O   0  0  0  0  0  0  0  0  0  0  0  0
    0.8484    1.0067    2.2009 C   0  0  0  0  0  0  0  0  0  0  0  0
   -0.1276    1.2897    3.1361 C   0  0  0  0  0  0  0  0  0  0  0  0
    0.1953    1.3551    4.4724 C   0  0  0  0  0  0  0  0  0  0  0  0
    1.5006    1.1133    4.8981 C   0  0  0  0  0  0  0  0  0  0  0  0
    1.9362    1.1955    6.2572 C   0  0  0  0  0  0  0  0  0  0  0  0
    3.2046    0.9194    6.6161 C   0  0  0  0  0  0  0  0  0  0  0  0
    4.1580    0.4531    5.6036 C   0  0  0  0  0  0  0  0  0  0  0  0
    5.2486    0.0071    5.7907 O   0  0  0  0  0  0  0  0  0  0  0  0
    3.7424    0.5111    4.2920 O   0  0  0  0  0  0  0  0  0  0  0  0
    2.4548    0.8061    3.9324 C   0  0  0  0  0  0  0  0  0  0  0  0
    2.1387    0.7654    2.5812 C   0  0  0  0  0  0  0  0  0  0  0  0
    3.2072    0.4583    1.5447 C   0  0  0  0  0  0  0  0  0  0  0  0
    2.8206   -0.7936    0.7741 C   0  0  0  0  0  0  0  0  0  0  0  0
    2.6429   -0.7351   -0.5734 C   0  0  0  0  0  0  0  0  0  0  0  0
    2.2563   -1.9870   -1.3440 C   0  0  0  0  0  0  0  0  0  0  0  0
    2.8308    0.5820   -1.3084 C   0  0  0  0  0  0  0  0  0  0  0  0
    0.6221    0.0357   -0.9929 H   0  0  0  0  0  0  0  0  0  0  0  0
    0.6221   -1.0301    0.3917 H   0  0  0  0  0  0  0  0  0  0  0  0
    2.0487   -0.0975    0.0071 H   0  0  0  0  0  0  0  0  0  0  0  0
   -1.1363    1.4583    2.8213 H   0  0  0  0  0  0  0  0  0  0  0  0
   -0.5615    1.5934    5.1903 H   0  0  0  0  0  0  0  0  0  0  0  0
    1.2343    1.4849    7.0111 H   0  0  0  0  0  0  0  0  0  0  0  0
    3.5148    1.0395    7.6331 H   0  0  0  0  0  0  0  0  0  0  0  0
    3.2938    1.2818    0.8670 H   0  0  0  0  0  0  0  0  0  0  0  0
    4.1449    0.2999    2.0351 H   0  0  0  0  0  0  0  0  0  0  0  0
    2.6883   -1.7208    1.2914 H   0  0  0  0  0  0  0  0  0  0  0  0
    1.3186   -1.8286   -1.8345 H   0  0  0  0  0  0  0  0  0  0  0  0
    3.0085   -2.2031   -2.0737 H   0  0  0  0  0  0  0  0  0  0  0  0
    2.1697   -2.8105   -0.6663 H   0  0  0  0  0  0  0  0  0  0  0  0
    2.1421    1.3057   -0.9251 H   0  0  0  0  0  0  0  0  0  0  0  0
    3.8319    0.9312   -1.1643 H   0  0  0  0  0  0  0  0  0  0  0  0
    2.6507    0.4364   -2.3530 H   0  0  0  0  0  0  0  0  0  0  0  0
  1  2  1  0  0  0  0
  1 19  1  0  0  0  0
  1 20  1  0  0  0  0
  1 21  1  0  0  0  0
  2  3  1  0  0  0  0
  3  4  1  0  0  0  0
  3 13  2  0  0  0  0
  4  5  2  0  0  0  0
  4 22  1  0  0  0  0
  5  6  1  0  0  0  0
  5 23  1  0  0  0  0
  6  7  1  0  0  0  0
  6 12  2  0  0  0  0
  7  8  2  0  0  0  0
  7 24  1  0  0  0  0
  8  9  1  0  0  0  0
  8 25  1  0  0  0  0
  9 10  2  0  0  0  0
  9 11  1  0  0  0  0
 11 12  1  0  0  0  0
 12 13  1  0  0  0  0
 13 14  1  0  0  0  0
 14 15  1  0  0  0  0
 14 26  1  0  0  0  0
 14 27  1  0  0  0  0
 15 16  2  0  0  0  0
 15 28  1  0  0  0  0
 16 17  1  0  0  0  0
 16 18  1  0  0  0  0
 17 29  1  0  0  0  0
 17 30  1  0  0  0  0
 17 31  1  0  0  0  0
 18 32  1  0  0  0  0
 18 33  1  0  0  0  0
 18 34  1  0  0  0  0
M  END
