
 OpenBabel03132512093D

 34 35  0  0  0  0  0  0  0  0999 V2000
    0.9980   -0.0760   -0.0649 C   0  0  0  0  0  0  0  0  0  0  0  0
    0.5246   -1.3499   -0.4766 O   0  0  0  0  0  0  0  0  0  0  0  0
    0.8677   -1.8545   -1.7589 C   0  0  0  0  0  0  0  0  0  0  0  0
   -0.0524   -2.5540   -2.5147 C   0  0  0  0  0  0  0  0  0  0  0  0
    0.3379   -3.1664   -3.6839 C   0  0  0  0  0  0  0  0  0  0  0  0
    1.6551   -3.0674   -4.1295 C   0  0  0  0  0  0  0  0  0  0  0  0
    2.1596   -3.6994   -5.3084 C   0  0  0  0  0  0  0  0  0  0  0  0
    3.4357   -3.5428   -5.7095 C   0  0  0  0  0  0  0  0  0  0  0  0
    4.3241   -2.6457   -4.9628 C   0  0  0  0  0  0  0  0  0  0  0  0
    5.4093   -2.2708   -5.2870 O   0  0  0  0  0  0  0  0  0  0  0  0
    3.8460   -2.1598   -3.7663 O   0  0  0  0  0  0  0  0  0  0  0  0
    2.5512   -2.3340   -3.3571 C   0  0  0  0  0  0  0  0  0  0  0  0
    2.1677   -1.7373   -2.1637 C   0  0  0  0  0  0  0  0  0  0  0  0
    3.1743   -0.9685   -1.3236 C   0  0  0  0  0  0  0  0  0  0  0  0
    2.7143    0.4725   -1.1743 C   0  0  0  0  0  0  0  0  0  0  0  0
    2.4719    0.9845    0.0625 C   0  0  0  0  0  0  0  0  0  0  0  0
    2.0118    2.4255    0.2117 C   0  0  0  0  0  0  0  0  0  0  0  0
    2.6611    0.1156    1.2952 C   0  0  0  0  0  0  0  0  0  0  0  0
    0.6413    0.1353    0.9215 H   0  0  0  0  0  0  0  0  0  0  0  0
    0.6413    0.6726   -0.7412 H   0  0  0  0  0  0  0  0  0  0  0  0
    2.0680   -0.0760   -0.0649 H   0  0  0  0  0  0  0  0  0  0  0  0
   -1.0701   -2.6200   -2.1910 H   0  0  0  0  0  0  0  0  0  0  0  0
   -0.3753   -3.7228   -4.2554 H   0  0  0  0  0  0  0  0  0  0  0  0
    1.5044   -4.3147   -5.8889 H   0  0  0  0  0  0  0  0  0  0  0  0
    3.7991   -4.0693   -6.5672 H   0  0  0  0  0  0  0  0  0  0  0  0
    3.2510   -1.4203   -0.3567 H   0  0  0  0  0  0  0  0  0  0  0  0
    4.1301   -0.9898   -1.8040 H   0  0  0  0  0  0  0  0  0  0  0  0
    2.5811    1.0842   -2.0421 H   0  0  0  0  0  0  0  0  0  0  0  0
    1.0560    2.4469    0.6922 H   0  0  0  0  0  0  0  0  0  0  0  0
    2.7205    2.9668    0.8032 H   0  0  0  0  0  0  0  0  0  0  0  0
    1.9352    2.8774   -0.7551 H   0  0  0  0  0  0  0  0  0  0  0  0
    2.0133   -0.7339    1.2356 H   0  0  0  0  0  0  0  0  0  0  0  0
    3.6778   -0.2140    1.3466 H   0  0  0  0  0  0  0  0  0  0  0  0
    2.4255    0.6831    2.1712 H   0  0  0  0  0  0  0  0  0  0  0  0
  1  2  1  0  0  0  0
  1 19  1  0  0  0  0
  1 20  1  0  0  0  0
  1 21  1  0  0  0  0
  2  3  1  0  0  0  0
  3  4  1  0  0  0  0
  3 13  2  0  0  0  0
  4  5  2  0  0  0  0
  4 22  1  0  0  0  0
  5  6  1  0  0  0  0
  5 23  1  0  0  0  0
  6  7  1  0  0  0  0
  6 12  2  0  0  0  0
  7  8  2  0  0  0  0
  7 24  1  0  0  0  0
  8  9  1  0  0  0  0
  8 25  1  0  0  0  0
  9 10  2  0  0  0  0
  9 11  1  0  0  0  0
 11 12  1  0  0  0  0
 12 13  1  0  0  0  0
 13 14  1  0  0  0  0
 14 15  1  0  0  0  0
 14 26  1  0  0  0  0
 14 27  1  0  0  0  0
 15 16  2  0  0  0  0
 15 28  1  0  0  0  0
 16 17  1  0  0  0  0
 16 18  1  0  0  0  0
 17 29  1  0  0  0  0
 17 30  1  0  0  0  0
 17 31  1  0  0  0  0
 18 32  1  0  0  0  0
 18 33  1  0  0  0  0
 18 34  1  0  0  0  0
M  END
