
 OpenBabel03132512093D

 50 49  0  0  0  0  0  0  0  0999 V2000
    1.0267    0.0206    0.0942 C   0  0  0  0  0  0  0  0  0  0  0  0
    0.5200    0.5950    1.4071 C   0  0  0  0  0  0  0  0  0  0  0  0
    1.0267    2.0192    1.5661 C   0  0  0  0  0  0  0  0  0  0  0  0
    0.5200    2.8690    0.4122 C   0  0  0  0  0  0  0  0  0  0  0  0
   -1.0000    2.8690    0.4122 C   0  0  0  0  0  0  0  0  0  0  0  0
   -1.5067    3.4434    1.7251 C   0  0  0  0  0  0  0  0  0  0  0  0
   -1.0000    4.8676    1.8841 C   0  0  0  0  0  0  0  0  0  0  0  0
   -1.5067    5.7175    0.7302 C   0  0  0  0  0  0  0  0  0  0  0  0
   -3.0267    5.7175    0.7302 C   0  0  0  0  0  0  0  0  0  0  0  0
   -3.5334    6.2919    2.0431 C   0  0  0  0  0  0  0  0  0  0  0  0
   -3.0267    7.7161    2.2021 C   0  0  0  0  0  0  0  0  0  0  0  0
   -3.5334    8.5659    1.0482 C   0  0  0  0  0  0  0  0  0  0  0  0
   -5.0534    8.5659    1.0482 C   0  0  0  0  0  0  0  0  0  0  0  0
   -5.5600    9.1403    2.3611 C   0  0  0  0  0  0  0  0  0  0  0  0
   -5.0534   10.5645    2.5201 C   0  0  0  0  0  0  0  0  0  0  0  0
   -5.5601   11.4144    1.3662 C   0  0  0  0  0  0  0  0  0  0  0  0
   -6.2907   12.4283    1.5968 O   0  0  0  0  0  0  0  0  0  0  0  0
   -5.2170   11.0753    0.0306 O   0  0  0  0  0  0  0  0  0  0  0  0
    0.6700    0.6188   -0.7181 H   0  0  0  0  0  0  0  0  0  0  0  0
    0.6700   -0.9820   -0.0178 H   0  0  0  0  0  0  0  0  0  0  0  0
    2.0967    0.0206    0.0942 H   0  0  0  0  0  0  0  0  0  0  0  0
   -0.5500    0.5950    1.4071 H   0  0  0  0  0  0  0  0  0  0  0  0
    0.8767   -0.0032    2.2194 H   0  0  0  0  0  0  0  0  0  0  0  0
    0.6700    2.4236    2.4903 H   0  0  0  0  0  0  0  0  0  0  0  0
    2.0967    2.0192    1.5661 H   0  0  0  0  0  0  0  0  0  0  0  0
    0.8766    3.8716    0.5241 H   0  0  0  0  0  0  0  0  0  0  0  0
    0.8767    2.4647   -0.5120 H   0  0  0  0  0  0  0  0  0  0  0  0
   -1.3567    3.4672   -0.4001 H   0  0  0  0  0  0  0  0  0  0  0  0
   -1.3567    1.8664    0.3002 H   0  0  0  0  0  0  0  0  0  0  0  0
   -2.5767    3.4434    1.7251 H   0  0  0  0  0  0  0  0  0  0  0  0
   -1.1500    2.8452    2.5374 H   0  0  0  0  0  0  0  0  0  0  0  0
   -1.3567    5.2720    2.8083 H   0  0  0  0  0  0  0  0  0  0  0  0
    0.0700    4.8676    1.8841 H   0  0  0  0  0  0  0  0  0  0  0  0
   -1.1500    6.7200    0.8421 H   0  0  0  0  0  0  0  0  0  0  0  0
   -1.1500    5.3131   -0.1940 H   0  0  0  0  0  0  0  0  0  0  0  0
   -3.3834    6.3157   -0.0821 H   0  0  0  0  0  0  0  0  0  0  0  0
   -3.3834    4.7149    0.6183 H   0  0  0  0  0  0  0  0  0  0  0  0
   -4.6034    6.2919    2.0431 H   0  0  0  0  0  0  0  0  0  0  0  0
   -3.1767    5.6936    2.8554 H   0  0  0  0  0  0  0  0  0  0  0  0
   -3.3834    8.1204    3.1263 H   0  0  0  0  0  0  0  0  0  0  0  0
   -1.9567    7.7161    2.2021 H   0  0  0  0  0  0  0  0  0  0  0  0
   -3.1767    9.5685    1.1601 H   0  0  0  0  0  0  0  0  0  0  0  0
   -3.1767    8.1616    0.1240 H   0  0  0  0  0  0  0  0  0  0  0  0
   -5.4100    9.1641    0.2359 H   0  0  0  0  0  0  0  0  0  0  0  0
   -5.4100    7.5633    0.9363 H   0  0  0  0  0  0  0  0  0  0  0  0
   -6.6300    9.1403    2.3611 H   0  0  0  0  0  0  0  0  0  0  0  0
   -5.2034    8.5421    3.1734 H   0  0  0  0  0  0  0  0  0  0  0  0
   -5.4101   10.9689    3.4444 H   0  0  0  0  0  0  0  0  0  0  0  0
   -3.9834   10.5645    2.5201 H   0  0  0  0  0  0  0  0  0  0  0  0
   -5.5503   11.6344   -0.7285 H   0  0  0  0  0  0  0  0  0  0  0  0
  1  2  1  0  0  0  0
  1 19  1  0  0  0  0
  1 20  1  0  0  0  0
  1 21  1  0  0  0  0
  2  3  1  0  0  0  0
  2 22  1  0  0  0  0
  2 23  1  0  0  0  0
  3  4  1  0  0  0  0
  3 24  1  0  0  0  0
  3 25  1  0  0  0  0
  4  5  1  0  0  0  0
  4 26  1  0  0  0  0
  4 27  1  0  0  0  0
  5  6  1  0  0  0  0
  5 28  1  0  0  0  0
  5 29  1  0  0  0  0
  6  7  1  0  0  0  0
  6 30  1  0  0  0  0
  6 31  1  0  0  0  0
  7  8  1  0  0  0  0
  7 32  1  0  0  0  0
  7 33  1  0  0  0  0
  8  9  1  0  0  0  0
  8 34  1  0  0  0  0
  8 35  1  0  0  0  0
  9 10  1  0  0  0  0
  9 36  1  0  0  0  0
  9 37  1  0  0  0  0
 10 11  1  0  0  0  0
 10 38  1  0  0  0  0
 10 39  1  0  0  0  0
 11 12  1  0  0  0  0
 11 40  1  0  0  0  0
 11 41  1  0  0  0  0
 12 13  1  0  0  0  0
 12 42  1  0  0  0  0
 12 43  1  0  0  0  0
 13 14  1  0  0  0  0
 13 44  1  0  0  0  0
 13 45  1  0  0  0  0
 14 15  1  0  0  0  0
 14 46  1  0  0  0  0
 14 47  1  0  0  0  0
 15 16  1  0  0  0  0
 15 48  1  0  0  0  0
 15 49  1  0  0  0  0
 16 17  2  0  0  0  0
 16 18  1  0  0  0  0
 18 50  1  0  0  0  0
M  END
