
 OpenBabel03132512093D

 51 52  0  0  0  0  0  0  0  0999 V2000
    1.0568   -0.0597    0.0567 C   0  0  0  0  0  0  0  0  0  0  0  0
    0.3766   -0.8923    0.8902 C   0  0  0  0  0  0  0  0  0  0  0  0
   -1.1434   -0.8923    0.8902 C   0  0  0  0  0  0  0  0  0  0  0  0
    1.1366   -1.8226    1.8216 C   0  0  0  0  0  0  0  0  0  0  0  0
    2.4590   -1.9502    1.1201 C   0  0  0  0  0  0  0  0  0  0  0  0
    3.4077   -0.9840    1.2215 C   0  0  0  0  0  0  0  0  0  0  0  0
    3.9215    0.4456    1.1698 C   0  0  0  0  0  0  0  0  0  0  0  0
    3.1715    0.1018    2.0377 C   0  0  0  0  0  0  0  0  0  0  0  0
    2.1951    0.0780    2.9856 C   0  0  0  0  0  0  0  0  0  0  0  0
    1.3445   -1.1507    3.1795 C   0  0  0  0  0  0  0  0  0  0  0  0
    0.8773   -1.5606    4.2880 O   0  0  0  0  0  0  0  0  0  0  0  0
    4.1671    1.5537    1.8762 C   0  0  0  0  0  0  0  0  0  0  0  0
    5.7458    0.7360    1.5062 C   0  0  0  0  0  0  0  0  0  0  0  0
    5.5409   -0.0893    0.3114 C   0  0  0  0  0  0  0  0  0  0  0  0
    4.9479    0.7637   -0.6566 O   0  0  0  0  0  0  0  0  0  0  0  0
    3.6842    1.3584   -0.3999 C   0  0  0  0  0  0  0  0  0  0  0  0
    3.0840    1.1273    0.6962 O   0  0  0  0  0  0  0  0  0  0  0  0
    3.0494    2.2715   -1.4361 C   0  0  0  0  0  0  0  0  0  0  0  0
    3.7672    2.5480   -2.7471 C   0  0  0  0  0  0  0  0  0  0  0  0
    1.8388    2.8413   -1.1902 C   0  0  0  0  0  0  0  0  0  0  0  0
    1.1210    2.5648    0.1208 C   0  0  0  0  0  0  0  0  0  0  0  0
    4.6346   -1.1959    0.4737 C   0  0  0  0  0  0  0  0  0  0  0  0
    4.1613   -1.4986   -0.9386 C   0  0  0  0  0  0  0  0  0  0  0  0
    0.5218    0.5951   -0.5990 H   0  0  0  0  0  0  0  0  0  0  0  0
    2.1268   -0.0597    0.0567 H   0  0  0  0  0  0  0  0  0  0  0  0
   -1.5001   -1.8669    0.6297 H   0  0  0  0  0  0  0  0  0  0  0  0
   -1.5001   -0.6306    1.8645 H   0  0  0  0  0  0  0  0  0  0  0  0
   -1.5001   -0.1794    0.1765 H   0  0  0  0  0  0  0  0  0  0  0  0
    0.6400   -2.7523    2.0059 H   0  0  0  0  0  0  0  0  0  0  0  0
    2.9127   -2.7751    1.6287 H   0  0  0  0  0  0  0  0  0  0  0  0
    2.2402   -2.0515    0.0776 H   0  0  0  0  0  0  0  0  0  0  0  0
    3.7723    0.8429    0.1876 H   0  0  0  0  0  0  0  0  0  0  0  0
    3.3886    1.0420    1.8806 H   0  0  0  0  0  0  0  0  0  0  0  0
    4.9653    0.4581    1.4048 H   0  0  0  0  0  0  0  0  0  0  0  0
    2.0301    0.9393    3.5986 H   0  0  0  0  0  0  0  0  0  0  0  0
    3.8328    2.2757    1.1607 H   0  0  0  0  0  0  0  0  0  0  0  0
    4.2069    2.1209    2.7826 H   0  0  0  0  0  0  0  0  0  0  0  0
    6.5165    1.4591    1.3391 H   0  0  0  0  0  0  0  0  0  0  0  0
    6.0410    0.1203    2.3301 H   0  0  0  0  0  0  0  0  0  0  0  0
    6.4910   -0.4816    0.0141 H   0  0  0  0  0  0  0  0  0  0  0  0
    3.1573    2.2216   -3.5634 H   0  0  0  0  0  0  0  0  0  0  0  0
    3.9525    3.5979   -2.8378 H   0  0  0  0  0  0  0  0  0  0  0  0
    4.6972    2.0190   -2.7630 H   0  0  0  0  0  0  0  0  0  0  0  0
    1.3919    3.4840   -1.9196 H   0  0  0  0  0  0  0  0  0  0  0  0
    0.9694    3.4850    0.6454 H   0  0  0  0  0  0  0  0  0  0  0  0
    0.1742    2.1087   -0.0802 H   0  0  0  0  0  0  0  0  0  0  0  0
    1.7141    1.9061    0.7202 H   0  0  0  0  0  0  0  0  0  0  0  0
    5.1747   -1.9763    0.9678 H   0  0  0  0  0  0  0  0  0  0  0  0
    5.0060   -1.7124   -1.5597 H   0  0  0  0  0  0  0  0  0  0  0  0
    3.5075   -2.3454   -0.9219 H   0  0  0  0  0  0  0  0  0  0  0  0
    3.6373   -0.6511   -1.3286 H   0  0  0  0  0  0  0  0  0  0  0  0
  1  2  2  0  0  0  0
  1 24  1  0  0  0  0
  1 25  1  0  0  0  0
  2  3  1  0  0  0  0
  2  4  1  0  0  0  0
  3 26  1  0  0  0  0
  3 27  1  0  0  0  0
  3 28  1  0  0  0  0
  4  5  1  0  0  0  0
  4 10  1  0  0  0  0
  4 29  1  0  0  0  0
  5  6  1  0  0  0  0
  5 30  1  0  0  0  0
  5 31  1  0  0  0  0
  6  7  1  0  0  0  0
  6  8  1  0  0  0  0
  6 22  1  0  0  0  0
  7 32  1  0  0  0  0
  7 33  1  0  0  0  0
  7 34  1  0  0  0  0
  8  9  2  0  0  0  0
  8 12  1  0  0  0  0
  9 10  1  0  0  0  0
  9 35  1  0  0  0  0
 10 11  2  0  0  0  0
 12 13  1  0  0  0  0
 12 36  1  0  0  0  0
 12 37  1  0  0  0  0
 13 14  1  0  0  0  0
 13 38  1  0  0  0  0
 13 39  1  0  0  0  0
 14 15  1  0  0  0  0
 14 22  1  0  0  0  0
 14 40  1  0  0  0  0
 15 16  1  0  0  0  0
 16 17  2  0  0  0  0
 16 18  1  0  0  0  0
 18 19  1  0  0  0  0
 18 20  2  0  0  0  0
 19 41  1  0  0  0  0
 19 42  1  0  0  0  0
 19 43  1  0  0  0  0
 20 21  1  0  0  0  0
 20 44  1  0  0  0  0
 21 45  1  0  0  0  0
 21 46  1  0  0  0  0
 21 47  1  0  0  0  0
 22 23  1  0  0  0  0
 22 48  1  0  0  0  0
 23 49  1  0  0  0  0
 23 50  1  0  0  0  0
 23 51  1  0  0  0  0
M  END
