
 OpenBabel03132512083D

 44 47  0  0  0  0  0  0  0  0999 V2000
    0.9303    0.0679    0.0228 C   0  0  0  0  0  0  0  0  0  0  0  0
    0.4569   -0.1044   -1.3048 O   0  0  0  0  0  0  0  0  0  0  0  0
    0.8000    0.8392   -2.3090 C   0  0  0  0  0  0  0  0  0  0  0  0
    2.0876    1.3200   -2.4568 C   0  0  0  0  0  0  0  0  0  0  0  0
    2.4207    2.0961   -3.5477 C   0  0  0  0  0  0  0  0  0  0  0  0
    1.4596    2.4020   -4.5091 C   0  0  0  0  0  0  0  0  0  0  0  0
    0.1685    1.9117   -4.3497 C   0  0  0  0  0  0  0  0  0  0  0  0
   -0.1607    1.1371   -3.2594 C   0  0  0  0  0  0  0  0  0  0  0  0
   -1.4843    0.6449   -3.1108 O   0  0  0  0  0  0  0  0  0  0  0  0
   -1.8228   -0.1536   -1.9864 C   0  0  0  0  0  0  0  0  0  0  0  0
   -0.6181    2.4078   -5.5365 C   0  0  0  0  0  0  0  0  0  0  0  0
   -1.7539    3.2846   -5.0937 C   0  0  0  0  0  0  0  0  0  0  0  0
   -3.0197    2.8459   -5.1424 C   0  0  0  0  0  0  0  0  0  0  0  0
   -3.3360    1.6226   -5.5895 C   0  0  0  0  0  0  0  0  0  0  0  0
   -4.4693    1.1170   -5.3153 O   0  0  0  0  0  0  0  0  0  0  0  0
   -2.4511    0.9324   -6.3286 C   0  0  0  0  0  0  0  0  0  0  0  0
   -1.1332    1.2536   -6.3471 C   0  0  0  0  0  0  0  0  0  0  0  0
    0.3777    3.2101   -6.3397 C   0  0  0  0  0  0  0  0  0  0  0  0
    1.5489    3.1554   -5.6807 C   0  0  0  0  0  0  0  0  0  0  0  0
    2.5321    2.5073   -6.5605 N   0  0  0  0  0  0  0  0  0  0  0  0
    3.8331    2.4444   -5.8790 C   0  0  0  0  0  0  0  0  0  0  0  0
    2.0804    1.1456   -6.8809 C   0  0  0  0  0  0  0  0  0  0  0  0
    3.8397    2.6189   -3.7013 C   0  0  0  0  0  0  0  0  0  0  0  0
    0.5736   -0.7335    0.6355 H   0  0  0  0  0  0  0  0  0  0  0  0
    0.5736    0.9993    0.4105 H   0  0  0  0  0  0  0  0  0  0  0  0
    2.0003    0.0679    0.0228 H   0  0  0  0  0  0  0  0  0  0  0  0
    2.8297    1.0890   -1.7214 H   0  0  0  0  0  0  0  0  0  0  0  0
   -1.2169   -1.0354   -1.9798 H   0  0  0  0  0  0  0  0  0  0  0  0
   -1.6519    0.4034   -1.0890 H   0  0  0  0  0  0  0  0  0  0  0  0
   -2.8548   -0.4304   -2.0433 H   0  0  0  0  0  0  0  0  0  0  0  0
   -1.5503    4.2718   -4.7348 H   0  0  0  0  0  0  0  0  0  0  0  0
   -3.8044    3.4946   -4.8131 H   0  0  0  0  0  0  0  0  0  0  0  0
   -2.7949    0.1081   -6.9178 H   0  0  0  0  0  0  0  0  0  0  0  0
   -0.4555    0.6799   -6.9442 H   0  0  0  0  0  0  0  0  0  0  0  0
    0.4772    2.8152   -7.3292 H   0  0  0  0  0  0  0  0  0  0  0  0
    0.0498    4.2252   -6.4231 H   0  0  0  0  0  0  0  0  0  0  0  0
    1.8491    4.1510   -5.4283 H   0  0  0  0  0  0  0  0  0  0  0  0
    3.7355    1.8792   -4.9757 H   0  0  0  0  0  0  0  0  0  0  0  0
    4.5487    1.9726   -6.5194 H   0  0  0  0  0  0  0  0  0  0  0  0
    4.1618    3.4355   -5.6458 H   0  0  0  0  0  0  0  0  0  0  0  0
    1.1335    1.1914   -7.3770 H   0  0  0  0  0  0  0  0  0  0  0  0
    2.7961    0.6738   -7.5213 H   0  0  0  0  0  0  0  0  0  0  0  0
    4.5199    1.7946   -3.7521 H   0  0  0  0  0  0  0  0  0  0  0  0
    3.9117    3.1967   -4.5990 H   0  0  0  0  0  0  0  0  0  0  0  0
  1  2  1  0  0  0  0
  1 24  1  0  0  0  0
  1 25  1  0  0  0  0
  1 26  1  0  0  0  0
  2  3  1  0  0  0  0
  3  4  1  0  0  0  0
  3  8  2  0  0  0  0
  4  5  2  0  0  0  0
  4 27  1  0  0  0  0
  5  6  1  0  0  0  0
  5 23  1  0  0  0  0
  6  7  2  0  0  0  0
  6 19  1  0  0  0  0
  7  8  1  0  0  0  0
  7 11  1  0  0  0  0
  8  9  1  0  0  0  0
  9 10  1  0  0  0  0
 10 28  1  0  0  0  0
 10 29  1  0  0  0  0
 10 30  1  0  0  0  0
 11 12  1  0  0  0  0
 11 17  1  0  0  0  0
 11 18  1  0  0  0  0
 12 13  2  0  0  0  0
 12 31  1  0  0  0  0
 13 14  1  0  0  0  0
 13 32  1  0  0  0  0
 14 15  2  0  0  0  0
 14 16  1  0  0  0  0
 16 17  2  0  0  0  0
 16 33  1  0  0  0  0
 17 34  1  0  0  0  0
 18 19  1  0  0  0  0
 18 35  1  0  0  0  0
 18 36  1  0  0  0  0
 19 20  1  0  0  0  0
 19 37  1  0  0  0  0
 20 21  1  0  0  0  0
 20 22  1  0  0  0  0
 21 38  1  0  0  0  0
 21 39  1  0  0  0  0
 21 40  1  0  0  0  0
 22 23  1  0  0  0  0
 22 41  1  0  0  0  0
 22 42  1  0  0  0  0
 23 43  1  0  0  0  0
 23 44  1  0  0  0  0
M  END
