
 OpenBabel03132512093D

 58 57  0  0  0  0  0  0  0  0999 V2000
    1.0680    0.0673   -0.0292 C   0  0  0  0  0  0  0  0  0  0  0  0
    0.5613   -1.2098    0.6210 C   0  0  0  0  0  0  0  0  0  0  0  0
    1.0680   -1.2853    2.0521 C   0  0  0  0  0  0  0  0  0  0  0  0
    0.1839   -1.3397    3.0847 C   0  0  0  0  0  0  0  0  0  0  0  0
    0.6906   -1.4152    4.5158 C   0  0  0  0  0  0  0  0  0  0  0  0
    0.1839   -0.2136    5.2966 C   0  0  0  0  0  0  0  0  0  0  0  0
   -1.2361   -0.2136    5.2966 O   0  0  0  0  0  0  0  0  0  0  0  0
    0.6906   -0.2890    6.7277 C   0  0  0  0  0  0  0  0  0  0  0  0
    1.4727    0.7064    7.2258 C   0  0  0  0  0  0  0  0  0  0  0  0
    1.9794    0.6310    8.6569 C   0  0  0  0  0  0  0  0  0  0  0  0
    2.7615    1.6264    9.1549 C   0  0  0  0  0  0  0  0  0  0  0  0
    3.2682    1.5509   10.5860 C   0  0  0  0  0  0  0  0  0  0  0  0
    4.0503    2.5464   11.0841 C   0  0  0  0  0  0  0  0  0  0  0  0
    4.5569    2.4709   12.5151 C   0  0  0  0  0  0  0  0  0  0  0  0
    5.9769    2.4709   12.5151 O   0  0  0  0  0  0  0  0  0  0  0  0
    4.0503    3.6725   13.2960 C   0  0  0  0  0  0  0  0  0  0  0  0
    2.5303    3.6726   13.2960 C   0  0  0  0  0  0  0  0  0  0  0  0
    1.8501    3.6105   14.4725 C   0  0  0  0  0  0  0  0  0  0  0  0
    0.3301    3.6105   14.4725 C   0  0  0  0  0  0  0  0  0  0  0  0
   -0.1766    2.3334   15.1227 C   0  0  0  0  0  0  0  0  0  0  0  0
   -0.9587    2.3998   16.2338 C   0  0  0  0  0  0  0  0  0  0  0  0
   -1.4654    1.1228   16.8840 C   0  0  0  0  0  0  0  0  0  0  0  0
   -0.9588    1.0473   18.3151 C   0  0  0  0  0  0  0  0  0  0  0  0
   -1.4654    2.2489   19.0960 C   0  0  0  0  0  0  0  0  0  0  0  0
   -2.1961    2.0781   20.1217 O   0  0  0  0  0  0  0  0  0  0  0  0
   -1.1224    3.5624   18.6795 O   0  0  0  0  0  0  0  0  0  0  0  0
    0.7113    0.9132    0.5205 H   0  0  0  0  0  0  0  0  0  0  0  0
    0.7113    0.1204   -1.0366 H   0  0  0  0  0  0  0  0  0  0  0  0
    2.1380    0.0673   -0.0292 H   0  0  0  0  0  0  0  0  0  0  0  0
   -0.5087   -1.2098    0.6210 H   0  0  0  0  0  0  0  0  0  0  0  0
    0.9180   -2.0557    0.0713 H   0  0  0  0  0  0  0  0  0  0  0  0
    2.1200   -1.2956    2.2473 H   0  0  0  0  0  0  0  0  0  0  0  0
   -0.8680   -1.3294    2.8894 H   0  0  0  0  0  0  0  0  0  0  0  0
    0.3339   -2.3142    4.9734 H   0  0  0  0  0  0  0  0  0  0  0  0
    1.7606   -1.4152    4.5158 H   0  0  0  0  0  0  0  0  0  0  0  0
    0.5406    0.6854    4.8390 H   0  0  0  0  0  0  0  0  0  0  0  0
   -1.5694   -0.1639    4.3551 H   0  0  0  0  0  0  0  0  0  0  0  0
    0.4321   -1.1251    7.3434 H   0  0  0  0  0  0  0  0  0  0  0  0
    1.7312    1.5425    6.6101 H   0  0  0  0  0  0  0  0  0  0  0  0
    1.7209   -0.2051    9.2725 H   0  0  0  0  0  0  0  0  0  0  0  0
    3.0200    2.4625    8.5393 H   0  0  0  0  0  0  0  0  0  0  0  0
    3.0097    0.7149   11.2017 H   0  0  0  0  0  0  0  0  0  0  0  0
    4.3088    3.3825   10.4684 H   0  0  0  0  0  0  0  0  0  0  0  0
    4.2003    1.5719   12.9728 H   0  0  0  0  0  0  0  0  0  0  0  0
    6.3103    1.6804   12.0014 H   0  0  0  0  0  0  0  0  0  0  0  0
    4.4069    3.6194   14.3034 H   0  0  0  0  0  0  0  0  0  0  0  0
    4.4069    4.5715   12.8383 H   0  0  0  0  0  0  0  0  0  0  0  0
    1.9953    3.7214   12.3707 H   0  0  0  0  0  0  0  0  0  0  0  0
    2.3851    3.5617   15.3979 H   0  0  0  0  0  0  0  0  0  0  0  0
   -0.0266    4.4564   15.0222 H   0  0  0  0  0  0  0  0  0  0  0  0
   -0.0266    3.6636   13.4651 H   0  0  0  0  0  0  0  0  0  0  0  0
    0.0819    1.3822   14.7065 H   0  0  0  0  0  0  0  0  0  0  0  0
   -1.2172    3.3511   16.6501 H   0  0  0  0  0  0  0  0  0  0  0  0
   -2.5354    1.1228   16.8840 H   0  0  0  0  0  0  0  0  0  0  0  0
   -1.1087    0.2769   16.3343 H   0  0  0  0  0  0  0  0  0  0  0  0
   -1.3154    0.1483   18.7728 H   0  0  0  0  0  0  0  0  0  0  0  0
    0.1112    1.0473   18.3151 H   0  0  0  0  0  0  0  0  0  0  0  0
   -1.4557    4.3529   19.1932 H   0  0  0  0  0  0  0  0  0  0  0  0
  1  2  1  0  0  0  0
  1 27  1  0  0  0  0
  1 28  1  0  0  0  0
  1 29  1  0  0  0  0
  2  3  1  0  0  0  0
  2 30  1  0  0  0  0
  2 31  1  0  0  0  0
  3  4  2  0  0  0  0
  3 32  1  0  0  0  0
  4  5  1  0  0  0  0
  4 33  1  0  0  0  0
  5  6  1  0  0  0  0
  5 34  1  0  0  0  0
  5 35  1  0  0  0  0
  6  7  1  0  0  0  0
  6  8  1  0  0  0  0
  6 36  1  0  0  0  0
  7 37  1  0  0  0  0
  8  9  2  0  0  0  0
  8 38  1  0  0  0  0
  9 10  1  0  0  0  0
  9 39  1  0  0  0  0
 10 11  2  0  0  0  0
 10 40  1  0  0  0  0
 11 12  1  0  0  0  0
 11 41  1  0  0  0  0
 12 13  2  0  0  0  0
 12 42  1  0  0  0  0
 13 14  1  0  0  0  0
 13 43  1  0  0  0  0
 14 15  1  0  0  0  0
 14 16  1  0  0  0  0
 14 44  1  0  0  0  0
 15 45  1  0  0  0  0
 16 17  1  0  0  0  0
 16 46  1  0  0  0  0
 16 47  1  0  0  0  0
 17 18  2  0  0  0  0
 17 48  1  0  0  0  0
 18 19  1  0  0  0  0
 18 49  1  0  0  0  0
 19 20  1  0  0  0  0
 19 50  1  0  0  0  0
 19 51  1  0  0  0  0
 20 21  2  0  0  0  0
 20 52  1  0  0  0  0
 21 22  1  0  0  0  0
 21 53  1  0  0  0  0
 22 23  1  0  0  0  0
 22 54  1  0  0  0  0
 22 55  1  0  0  0  0
 23 24  1  0  0  0  0
 23 56  1  0  0  0  0
 23 57  1  0  0  0  0
 24 25  2  0  0  0  0
 24 26  1  0  0  0  0
 26 58  1  0  0  0  0
M  END
