
 OpenBabel03132514253D

 43 47  0  0  0  0  0  0  0  0999 V2000
    0.9088    0.0194    0.0361 C   0  0  0  0  0  0  0  0  0  0  0  0
    0.4355    0.9815   -0.8948 O   0  0  0  0  0  0  0  0  0  0  0  0
    0.7785    2.3505   -0.7374 C   0  0  0  0  0  0  0  0  0  0  0  0
    2.0600    2.7084   -0.4442 C   0  0  0  0  0  0  0  0  0  0  0  0
    2.3791    4.0452   -0.2280 C   0  0  0  0  0  0  0  0  0  0  0  0
    3.6760    4.5042    0.1209 C   0  0  0  0  0  0  0  0  0  0  0  0
    3.9484    5.8108    0.3477 C   0  0  0  0  0  0  0  0  0  0  0  0
    2.9293    6.7299    0.2332 N   0  3  0  0  0  0  0  0  0  0  0  0
    1.6936    6.3671   -0.1250 C   0  0  0  0  0  0  0  0  0  0  0  0
    1.3605    5.0260   -0.3688 C   0  0  0  0  0  0  0  0  0  0  0  0
    0.0445    4.6339   -0.7114 C   0  0  0  0  0  0  0  0  0  0  0  0
   -0.2364    3.3046   -0.8835 C   0  0  0  0  0  0  0  0  0  0  0  0
   -1.5559    2.8939   -1.2100 O   0  0  0  0  0  0  0  0  0  0  0  0
   -1.8468    1.5155   -1.3884 C   0  0  0  0  0  0  0  0  0  0  0  0
    3.1593    8.1559    0.5575 C   0  0  0  0  0  0  0  0  0  0  0  0
    4.4893    8.6139    0.2053 C   0  0  0  0  0  0  0  0  0  0  0  0
    5.5678    7.6723    0.6738 C   0  0  0  0  0  0  0  0  0  0  0  0
    6.8315    8.1572    0.9708 C   0  0  0  0  0  0  0  0  0  0  0  0
    7.8013    7.2357    1.2876 C   0  0  0  0  0  0  0  0  0  0  0  0
    7.5523    5.8874    1.3097 C   0  0  0  0  0  0  0  0  0  0  0  0
    6.3117    5.3890    1.0437 C   0  0  0  0  0  0  0  0  0  0  0  0
    5.2985    6.3186    0.7132 C   0  0  0  0  0  0  0  0  0  0  0  0
    8.6669    5.2090    1.6702 O   0  0  0  0  0  0  0  0  0  0  0  0
    9.7128    6.1696    1.7128 C   0  0  0  0  0  0  0  0  0  0  0  0
    9.1012    7.4792    1.6272 O   0  0  0  0  0  0  0  0  0  0  0  0
    0.5521   -0.9506   -0.2410 H   0  0  0  0  0  0  0  0  0  0  0  0
    0.5521    0.2644    1.0147 H   0  0  0  0  0  0  0  0  0  0  0  0
    1.9788    0.0194    0.0361 H   0  0  0  0  0  0  0  0  0  0  0  0
    2.8222    1.9602   -0.3801 H   0  0  0  0  0  0  0  0  0  0  0  0
    4.4684    3.7905    0.2079 H   0  0  0  0  0  0  0  0  0  0  0  0
    0.9391    7.1187   -0.2286 H   0  0  0  0  0  0  0  0  0  0  0  0
   -0.7233    5.3687   -0.8348 H   0  0  0  0  0  0  0  0  0  0  0  0
   -1.2498    1.1253   -2.1861 H   0  0  0  0  0  0  0  0  0  0  0  0
   -1.6268    0.9848   -0.4857 H   0  0  0  0  0  0  0  0  0  0  0  0
   -2.8830    1.3977   -1.6278 H   0  0  0  0  0  0  0  0  0  0  0  0
    2.4626    8.7294   -0.0175 H   0  0  0  0  0  0  0  0  0  0  0  0
    3.0201    8.2922    1.6096 H   0  0  0  0  0  0  0  0  0  0  0  0
    4.5433    8.6639   -0.8622 H   0  0  0  0  0  0  0  0  0  0  0  0
    4.6520    9.5718    0.6534 H   0  0  0  0  0  0  0  0  0  0  0  0
    7.0438    9.2058    0.9544 H   0  0  0  0  0  0  0  0  0  0  0  0
    6.1128    4.3384    1.0834 H   0  0  0  0  0  0  0  0  0  0  0  0
   10.3976    6.0188    0.9046 H   0  0  0  0  0  0  0  0  0  0  0  0
   10.2558    6.0788    2.6303 H   0  0  0  0  0  0  0  0  0  0  0  0
  1  2  1  0  0  0  0
  1 26  1  0  0  0  0
  1 27  1  0  0  0  0
  1 28  1  0  0  0  0
  2  3  1  0  0  0  0
  3  4  1  0  0  0  0
  3 12  2  0  0  0  0
  4  5  2  0  0  0  0
  4 29  1  0  0  0  0
  5  6  1  0  0  0  0
  5 10  1  0  0  0  0
  6  7  2  0  0  0  0
  6 30  1  0  0  0  0
  7  8  1  0  0  0  0
  7 22  1  0  0  0  0
  8  9  2  0  0  0  0
  8 15  1  0  0  0  0
  9 10  1  0  0  0  0
  9 31  1  0  0  0  0
 10 11  2  0  0  0  0
 11 12  1  0  0  0  0
 11 32  1  0  0  0  0
 12 13  1  0  0  0  0
 13 14  1  0  0  0  0
 14 33  1  0  0  0  0
 14 34  1  0  0  0  0
 14 35  1  0  0  0  0
 15 16  1  0  0  0  0
 15 36  1  0  0  0  0
 15 37  1  0  0  0  0
 16 17  1  0  0  0  0
 16 38  1  0  0  0  0
 16 39  1  0  0  0  0
 17 18  1  0  0  0  0
 17 22  2  0  0  0  0
 18 19  2  0  0  0  0
 18 40  1  0  0  0  0
 19 20  1  0  0  0  0
 19 25  1  0  0  0  0
 20 21  2  0  0  0  0
 20 23  1  0  0  0  0
 21 22  1  0  0  0  0
 21 41  1  0  0  0  0
 23 24  1  0  0  0  0
 24 25  1  0  0  0  0
 24 42  1  0  0  0  0
 24 43  1  0  0  0  0
M  CHG  1   8   1
M  END
