
 OpenBabel03132512093D

 35 36  0  0  0  0  0  0  0  0999 V2000
    0.9382   -0.0774   -0.0138 C   0  0  0  0  0  0  0  0  0  0  0  0
    0.4649    0.3261   -1.2903 O   0  0  0  0  0  0  0  0  0  0  0  0
    0.8079    1.6052   -1.8030 C   0  0  0  0  0  0  0  0  0  0  0  0
   -0.1172    2.4811   -2.3465 C   0  0  0  0  0  0  0  0  0  0  0  0
    0.4621    3.6023   -2.9864 C   0  0  0  0  0  0  0  0  0  0  0  0
   -0.4061    4.3919   -3.9524 C   0  0  0  0  0  0  0  0  0  0  0  0
   -1.6931    4.0123   -4.1764 C   0  0  0  0  0  0  0  0  0  0  0  0
   -2.5613    4.8019   -5.1424 C   0  0  0  0  0  0  0  0  0  0  0  0
   -3.8132    5.1702   -4.6781 C   0  0  0  0  0  0  0  0  0  0  0  0
   -4.6517    5.7284   -5.6718 C   0  0  0  0  0  0  0  0  0  0  0  0
   -4.2278    6.2055   -6.8279 C   0  0  0  0  0  0  0  0  0  0  0  0
   -5.0472    7.0313   -7.6422 O   0  0  0  0  0  0  0  0  0  0  0  0
   -2.9575    5.8616   -7.1987 C   0  0  0  0  0  0  0  0  0  0  0  0
   -2.1226    5.2004   -6.3306 C   0  0  0  0  0  0  0  0  0  0  0  0
    1.7045    4.0105   -2.8027 C   0  0  0  0  0  0  0  0  0  0  0  0
    2.5527    3.1243   -2.1988 C   0  0  0  0  0  0  0  0  0  0  0  0
    3.9387    3.4235   -2.1219 O   0  0  0  0  0  0  0  0  0  0  0  0
    4.8286    2.5104   -1.4969 C   0  0  0  0  0  0  0  0  0  0  0  0
    2.0833    1.9483   -1.6652 C   0  0  0  0  0  0  0  0  0  0  0  0
    0.5816   -1.0625    0.2038 H   0  0  0  0  0  0  0  0  0  0  0  0
    0.5816    0.6036    0.7305 H   0  0  0  0  0  0  0  0  0  0  0  0
    2.0082   -0.0774   -0.0138 H   0  0  0  0  0  0  0  0  0  0  0  0
   -1.1740    2.3242   -2.2878 H   0  0  0  0  0  0  0  0  0  0  0  0
   -0.0049    5.2464   -4.4563 H   0  0  0  0  0  0  0  0  0  0  0  0
   -2.0943    3.1579   -3.6724 H   0  0  0  0  0  0  0  0  0  0  0  0
   -4.1186    5.0440   -3.6604 H   0  0  0  0  0  0  0  0  0  0  0  0
   -5.7023    5.7667   -5.4726 H   0  0  0  0  0  0  0  0  0  0  0  0
   -4.6989    7.3780   -8.5132 H   0  0  0  0  0  0  0  0  0  0  0  0
   -2.6086    6.1110   -8.1790 H   0  0  0  0  0  0  0  0  0  0  0  0
   -1.1096    5.0049   -6.6147 H   0  0  0  0  0  0  0  0  0  0  0  0
    2.0299    4.9824   -3.1099 H   0  0  0  0  0  0  0  0  0  0  0  0
    4.5375    2.3701   -0.4769 H   0  0  0  0  0  0  0  0  0  0  0  0
    4.7949    1.5719   -2.0098 H   0  0  0  0  0  0  0  0  0  0  0  0
    5.8241    2.9011   -1.5332 H   0  0  0  0  0  0  0  0  0  0  0  0
    2.7515    1.3032   -1.1339 H   0  0  0  0  0  0  0  0  0  0  0  0
  1  2  1  0  0  0  0
  1 20  1  0  0  0  0
  1 21  1  0  0  0  0
  1 22  1  0  0  0  0
  2  3  1  0  0  0  0
  3  4  1  0  0  0  0
  3 19  2  0  0  0  0
  4  5  2  0  0  0  0
  4 23  1  0  0  0  0
  5  6  1  0  0  0  0
  5 15  1  0  0  0  0
  6  7  2  0  0  0  0
  6 24  1  0  0  0  0
  7  8  1  0  0  0  0
  7 25  1  0  0  0  0
  8  9  1  0  0  0  0
  8 14  2  0  0  0  0
  9 10  2  0  0  0  0
  9 26  1  0  0  0  0
 10 11  1  0  0  0  0
 10 27  1  0  0  0  0
 11 12  1  0  0  0  0
 11 13  2  0  0  0  0
 12 28  1  0  0  0  0
 13 14  1  0  0  0  0
 13 29  1  0  0  0  0
 14 30  1  0  0  0  0
 15 16  2  0  0  0  0
 15 31  1  0  0  0  0
 16 17  1  0  0  0  0
 16 19  1  0  0  0  0
 17 18  1  0  0  0  0
 18 32  1  0  0  0  0
 18 33  1  0  0  0  0
 18 34  1  0  0  0  0
 19 35  1  0  0  0  0
M  END
