
 OpenBabel03132514253D

 59 58  0  0  0  0  0  0  0  0999 V2000
    1.0268   -0.0895    0.0357 C   0  0  0  0  0  0  0  0  0  0  0  0
    0.5201   -0.2495    1.4598 C   0  0  0  0  0  0  0  0  0  0  0  0
    1.0267    0.9038    2.3104 C   0  0  0  0  0  0  0  0  0  0  0  0
    0.1427    1.7359    2.9242 C   0  0  0  0  0  0  0  0  0  0  0  0
    0.6494    2.8892    3.7748 C   0  0  0  0  0  0  0  0  0  0  0  0
    0.1427    4.2026    3.2014 C   0  0  0  0  0  0  0  0  0  0  0  0
   -1.2773    4.2026    3.2014 O   0  0  0  0  0  0  0  0  0  0  0  0
    0.6494    5.3559    4.0520 C   0  0  0  0  0  0  0  0  0  0  0  0
    1.4315    6.3196    3.4950 C   0  0  0  0  0  0  0  0  0  0  0  0
    1.9381    7.4729    4.3456 C   0  0  0  0  0  0  0  0  0  0  0  0
    2.7203    8.4366    3.7886 C   0  0  0  0  0  0  0  0  0  0  0  0
    3.2269    9.5899    4.6393 C   0  0  0  0  0  0  0  0  0  0  0  0
    4.0090   10.5536    4.0823 C   0  0  0  0  0  0  0  0  0  0  0  0
    4.5157   11.7069    4.9329 C   0  0  0  0  0  0  0  0  0  0  0  0
    5.2978   12.6706    4.3759 C   0  0  0  0  0  0  0  0  0  0  0  0
    5.8045   13.8239    5.2265 C   0  0  0  0  0  0  0  0  0  0  0  0
    7.2245   13.8239    5.2265 O   0  0  0  0  0  0  0  0  0  0  0  0
    5.2978   15.1372    4.6531 C   0  0  0  0  0  0  0  0  0  0  0  0
    3.8778   15.1372    4.6530 O   0  0  0  0  0  0  0  0  0  0  0  0
    5.8045   16.2905    5.5037 C   0  0  0  0  0  0  0  0  0  0  0  0
    7.3245   16.2905    5.5037 C   0  0  0  0  0  0  0  0  0  0  0  0
    8.0047   17.3702    5.0323 C   0  0  0  0  0  0  0  0  0  0  0  0
    9.5247   17.3702    5.0323 C   0  0  0  0  0  0  0  0  0  0  0  0
   10.0314   17.5303    3.6082 C   0  0  0  0  0  0  0  0  0  0  0  0
    9.5247   18.8436    3.0347 C   0  0  0  0  0  0  0  0  0  0  0  0
   10.3506   19.7289    2.6481 O   0  0  0  0  0  0  0  0  0  0  0  0
    8.1286   19.0814    2.9308 O   0  0  0  0  0  0  0  0  0  0  0  0
    0.6701    0.8350   -0.3680 H   0  0  0  0  0  0  0  0  0  0  0  0
    0.6701   -0.9014   -0.5631 H   0  0  0  0  0  0  0  0  0  0  0  0
    2.0968   -0.0895    0.0357 H   0  0  0  0  0  0  0  0  0  0  0  0
   -0.5499   -0.2495    1.4598 H   0  0  0  0  0  0  0  0  0  0  0  0
    0.8768   -1.1740    1.8635 H   0  0  0  0  0  0  0  0  0  0  0  0
    2.0787    1.0611    2.4265 H   0  0  0  0  0  0  0  0  0  0  0  0
   -0.9093    1.5786    2.8081 H   0  0  0  0  0  0  0  0  0  0  0  0
    0.2927    2.7766    4.7773 H   0  0  0  0  0  0  0  0  0  0  0  0
    1.7194    2.8892    3.7748 H   0  0  0  0  0  0  0  0  0  0  0  0
    0.4994    4.3152    2.1989 H   0  0  0  0  0  0  0  0  0  0  0  0
   -1.6106    3.4438    2.6417 H   0  0  0  0  0  0  0  0  0  0  0  0
    0.3909    5.4097    5.0889 H   0  0  0  0  0  0  0  0  0  0  0  0
    1.6900    6.2657    2.4581 H   0  0  0  0  0  0  0  0  0  0  0  0
    1.6797    7.5267    5.3825 H   0  0  0  0  0  0  0  0  0  0  0  0
    2.9788    8.3827    2.7517 H   0  0  0  0  0  0  0  0  0  0  0  0
    2.9684    9.6438    5.6762 H   0  0  0  0  0  0  0  0  0  0  0  0
    4.2675   10.4997    3.0453 H   0  0  0  0  0  0  0  0  0  0  0  0
    4.2572   11.7608    5.9698 H   0  0  0  0  0  0  0  0  0  0  0  0
    5.5563   12.6167    3.3390 H   0  0  0  0  0  0  0  0  0  0  0  0
    5.4478   13.7112    6.2290 H   0  0  0  0  0  0  0  0  0  0  0  0
    7.5578   12.9599    5.6038 H   0  0  0  0  0  0  0  0  0  0  0  0
    5.6545   15.2499    3.6506 H   0  0  0  0  0  0  0  0  0  0  0  0
    3.5445   14.3785    4.0934 H   0  0  0  0  0  0  0  0  0  0  0  0
    5.4478   17.2150    5.1000 H   0  0  0  0  0  0  0  0  0  0  0  0
    5.4478   16.1779    6.5062 H   0  0  0  0  0  0  0  0  0  0  0  0
    7.8595   15.4413    5.8745 H   0  0  0  0  0  0  0  0  0  0  0  0
    7.4697   18.2194    4.6614 H   0  0  0  0  0  0  0  0  0  0  0  0
    9.8813   18.1821    5.6311 H   0  0  0  0  0  0  0  0  0  0  0  0
    9.8813   16.4457    5.4360 H   0  0  0  0  0  0  0  0  0  0  0  0
   11.1014   17.5303    3.6082 H   0  0  0  0  0  0  0  0  0  0  0  0
    9.6747   16.7184    3.0094 H   0  0  0  0  0  0  0  0  0  0  0  0
    7.7953   19.9454    2.5536 H   0  0  0  0  0  0  0  0  0  0  0  0
  1  2  1  0  0  0  0
  1 28  1  0  0  0  0
  1 29  1  0  0  0  0
  1 30  1  0  0  0  0
  2  3  1  0  0  0  0
  2 31  1  0  0  0  0
  2 32  1  0  0  0  0
  3  4  2  0  0  0  0
  3 33  1  0  0  0  0
  4  5  1  0  0  0  0
  4 34  1  0  0  0  0
  5  6  1  0  0  0  0
  5 35  1  0  0  0  0
  5 36  1  0  0  0  0
  6  7  1  0  0  0  0
  6  8  1  0  0  0  0
  6 37  1  0  0  0  0
  7 38  1  0  0  0  0
  8  9  2  0  0  0  0
  8 39  1  0  0  0  0
  9 10  1  0  0  0  0
  9 40  1  0  0  0  0
 10 11  2  0  0  0  0
 10 41  1  0  0  0  0
 11 12  1  0  0  0  0
 11 42  1  0  0  0  0
 12 13  2  0  0  0  0
 12 43  1  0  0  0  0
 13 14  1  0  0  0  0
 13 44  1  0  0  0  0
 14 15  2  0  0  0  0
 14 45  1  0  0  0  0
 15 16  1  0  0  0  0
 15 46  1  0  0  0  0
 16 17  1  0  0  0  0
 16 18  1  0  0  0  0
 16 47  1  0  0  0  0
 17 48  1  0  0  0  0
 18 19  1  0  0  0  0
 18 20  1  0  0  0  0
 18 49  1  0  0  0  0
 19 50  1  0  0  0  0
 20 21  1  0  0  0  0
 20 51  1  0  0  0  0
 20 52  1  0  0  0  0
 21 22  2  0  0  0  0
 21 53  1  0  0  0  0
 22 23  1  0  0  0  0
 22 54  1  0  0  0  0
 23 24  1  0  0  0  0
 23 55  1  0  0  0  0
 23 56  1  0  0  0  0
 24 25  1  0  0  0  0
 24 57  1  0  0  0  0
 24 58  1  0  0  0  0
 25 26  2  0  0  0  0
 25 27  1  0  0  0  0
 27 59  1  0  0  0  0
M  END
