
 OpenBabel03132512093D

 29 30  0  0  0  0  0  0  0  0999 V2000
    2.2370    0.0050   -0.0110 O   0  0  0  0  0  0  0  0  0  0  0  0
    0.8850   -0.0250   -0.0010 C   0  0  0  0  0  0  0  0  0  0  0  0
    0.2240    1.1800    0.0160 C   0  0  0  0  0  0  0  0  0  0  0  0
   -1.1570    1.2120    0.0000 C   0  0  0  0  0  0  0  0  0  0  0  0
   -1.8770    0.0420   -0.0140 C   0  0  0  0  0  0  0  0  0  0  0  0
   -3.3960    0.0872   -0.0439 C   0  0  0  0  0  0  0  0  0  0  0  0
   -4.0408    1.2850   -0.0568 C   0  0  0  0  0  0  0  0  0  0  0  0
   -5.5598    1.3302   -0.0867 C   0  0  0  0  0  0  0  0  0  0  0  0
   -6.2904    0.4901    0.7602 C   0  0  0  0  0  0  0  0  0  0  0  0
   -7.6970    0.5780    0.7124 C   0  0  0  0  0  0  0  0  0  0  0  0
   -8.4837   -0.1781    1.5113 O   0  0  0  0  0  0  0  0  0  0  0  0
   -8.3199    1.4263   -0.1717 C   0  0  0  0  0  0  0  0  0  0  0  0
   -7.5679    2.2424   -0.9944 C   0  0  0  0  0  0  0  0  0  0  0  0
   -8.2160    3.1312   -1.8924 O   0  0  0  0  0  0  0  0  0  0  0  0
   -6.1955    2.1978   -0.9475 C   0  0  0  0  0  0  0  0  0  0  0  0
   -1.2260   -1.1720   -0.0010 C   0  0  0  0  0  0  0  0  0  0  0  0
    0.1710   -1.2410    0.0150 C   0  0  0  0  0  0  0  0  0  0  0  0
    2.7560   -0.8497   -0.0234 H   0  0  0  0  0  0  0  0  0  0  0  0
    0.7796    2.0941    0.0416 H   0  0  0  0  0  0  0  0  0  0  0  0
   -1.6681    2.1520   -0.0015 H   0  0  0  0  0  0  0  0  0  0  0  0
   -3.9582   -0.8232   -0.0548 H   0  0  0  0  0  0  0  0  0  0  0  0
   -3.4786    2.1953   -0.0459 H   0  0  0  0  0  0  0  0  0  0  0  0
   -5.7997   -0.1943    1.4203 H   0  0  0  0  0  0  0  0  0  0  0  0
   -8.0702   -0.8083    2.1685 H   0  0  0  0  0  0  0  0  0  0  0  0
   -9.3884    1.4546   -0.2228 H   0  0  0  0  0  0  0  0  0  0  0  0
   -7.6737    3.7228   -2.4889 H   0  0  0  0  0  0  0  0  0  0  0  0
   -5.6189    2.8387   -1.5812 H   0  0  0  0  0  0  0  0  0  0  0  0
   -1.7979   -2.0763   -0.0032 H   0  0  0  0  0  0  0  0  0  0  0  0
    0.6794   -2.1822    0.0385 H   0  0  0  0  0  0  0  0  0  0  0  0
  1  2  1  0  0  0  0
  1 18  1  0  0  0  0
  2  3  1  0  0  0  0
  2 17  2  0  0  0  0
  3  4  2  0  0  0  0
  3 19  1  0  0  0  0
  4  5  1  0  0  0  0
  4 20  1  0  0  0  0
  5  6  1  0  0  0  0
  5 16  2  0  0  0  0
  6  7  2  0  0  0  0
  6 21  1  0  0  0  0
  7  8  1  0  0  0  0
  7 22  1  0  0  0  0
  8  9  1  0  0  0  0
  8 15  2  0  0  0  0
  9 10  2  0  0  0  0
  9 23  1  0  0  0  0
 10 11  1  0  0  0  0
 10 12  1  0  0  0  0
 11 24  1  0  0  0  0
 12 13  2  0  0  0  0
 12 25  1  0  0  0  0
 13 14  1  0  0  0  0
 13 15  1  0  0  0  0
 14 26  1  0  0  0  0
 15 27  1  0  0  0  0
 16 17  1  0  0  0  0
 16 28  1  0  0  0  0
 17 29  1  0  0  0  0
M  END
