
 OpenBabel03132512093D

 66 69  0  0  0  0  0  0  0  0999 V2000
    1.0407   -0.0319    0.0856 C   0  0  0  0  0  0  0  0  0  0  0  0
    0.5340   -0.9668   -1.0006 C   0  0  0  0  0  0  0  0  0  0  0  0
   -0.1966   -1.9604   -0.6938 O   0  0  0  0  0  0  0  0  0  0  0  0
    0.9012   -0.7133   -2.4536 C   0  0  0  0  0  0  0  0  0  0  0  0
   -0.0520   -0.8552   -3.4421 C   0  0  0  0  0  0  0  0  0  0  0  0
   -1.3876   -1.1822   -3.0878 O   0  0  0  0  0  0  0  0  0  0  0  0
    0.2652   -0.6896   -4.7166 C   0  0  0  0  0  0  0  0  0  0  0  0
   -0.8104   -0.8612   -5.7768 C   0  0  0  0  0  0  0  0  0  0  0  0
    1.4953   -0.3787   -5.0899 C   0  0  0  0  0  0  0  0  0  0  0  0
    1.7874   -0.2046   -6.4685 O   0  0  0  0  0  0  0  0  0  0  0  0
    2.4994   -0.2213   -4.1542 C   0  0  0  0  0  0  0  0  0  0  0  0
    3.9104    0.1360   -4.5920 C   0  0  0  0  0  0  0  0  0  0  0  0
    4.4438   -0.9470   -5.5156 C   0  0  0  0  0  0  0  0  0  0  0  0
    5.6558   -1.5824   -5.3331 C   0  0  0  0  0  0  0  0  0  0  0  0
    6.3932   -1.3586   -4.1404 O   0  0  0  0  0  0  0  0  0  0  0  0
    6.1382   -2.3978   -6.2576 C   0  0  0  0  0  0  0  0  0  0  0  0
    5.4815   -2.6389   -7.3799 C   0  0  0  0  0  0  0  0  0  0  0  0
    4.2630   -2.0374   -7.6291 C   0  0  0  0  0  0  0  0  0  0  0  0
    3.5151   -2.3200   -8.9218 C   0  0  0  0  0  0  0  0  0  0  0  0
    4.0102   -3.1141   -9.7818 O   0  0  0  0  0  0  0  0  0  0  0  0
    2.1751   -1.6530   -9.1860 C   0  0  0  0  0  0  0  0  0  0  0  0
    1.6451   -0.8030   -8.2655 C   0  0  0  0  0  0  0  0  0  0  0  0
    0.3051   -0.1359   -8.5297 C   0  0  0  0  0  0  0  0  0  0  0  0
    0.1240    1.2091   -8.2771 C   0  0  0  0  0  0  0  0  0  0  0  0
   -1.0444    1.7888   -8.5037 C   0  0  0  0  0  0  0  0  0  0  0  0
   -2.0734    1.1099   -8.9825 C   0  0  0  0  0  0  0  0  0  0  0  0
   -1.9635   -0.2393   -9.2582 C   0  0  0  0  0  0  0  0  0  0  0  0
   -0.7551   -0.8801   -9.0267 C   0  0  0  0  0  0  0  0  0  0  0  0
    3.7307   -1.1722   -6.6843 C   0  0  0  0  0  0  0  0  0  0  0  0
    2.4836   -0.5312   -6.9083 O   0  0  0  0  0  0  0  0  0  0  0  0
    6.0352   -3.5264   -8.3402 O   0  0  0  0  0  0  0  0  0  0  0  0
    5.3371   -3.7911   -9.5481 C   0  0  0  0  0  0  0  0  0  0  0  0
    3.9808   -4.3974   -9.2269 C   0  0  0  0  0  0  0  0  0  0  0  0
    5.1432   -2.4937  -10.3159 C   0  0  0  0  0  0  0  0  0  0  0  0
    6.1402   -4.7655  -10.3943 C   0  0  0  0  0  0  0  0  0  0  0  0
    7.4795   -3.0735   -6.0235 C   0  0  0  0  0  0  0  0  0  0  0  0
    2.2034   -0.3934   -2.8098 C   0  0  0  0  0  0  0  0  0  0  0  0
    3.2110   -0.2455   -1.8202 O   0  0  0  0  0  0  0  0  0  0  0  0
    0.6840   -0.3650    1.0378 H   0  0  0  0  0  0  0  0  0  0  0  0
    0.6840    0.9593   -0.1020 H   0  0  0  0  0  0  0  0  0  0  0  0
    2.1107   -0.0319    0.0856 H   0  0  0  0  0  0  0  0  0  0  0  0
   -1.6333   -1.3085   -2.1267 H   0  0  0  0  0  0  0  0  0  0  0  0
   -1.2047   -1.8546   -5.7274 H   0  0  0  0  0  0  0  0  0  0  0  0
   -1.5967   -0.1563   -5.6044 H   0  0  0  0  0  0  0  0  0  0  0  0
   -0.3869   -0.6933   -6.7450 H   0  0  0  0  0  0  0  0  0  0  0  0
    2.7155    0.0306   -6.7572 H   0  0  0  0  0  0  0  0  0  0  0  0
    3.8968    1.0719   -5.1104 H   0  0  0  0  0  0  0  0  0  0  0  0
    4.5419    0.2139   -3.7317 H   0  0  0  0  0  0  0  0  0  0  0  0
    6.0339   -0.7437   -3.4384 H   0  0  0  0  0  0  0  0  0  0  0  0
    1.6486   -1.8519  -10.0960 H   0  0  0  0  0  0  0  0  0  0  0  0
    2.1716   -0.6041   -7.3554 H   0  0  0  0  0  0  0  0  0  0  0  0
    0.9370    1.7896   -7.8938 H   0  0  0  0  0  0  0  0  0  0  0  0
   -1.1589    2.8318   -8.2945 H   0  0  0  0  0  0  0  0  0  0  0  0
   -3.0020    1.6116   -9.1585 H   0  0  0  0  0  0  0  0  0  0  0  0
   -2.7998   -0.7831   -9.6453 H   0  0  0  0  0  0  0  0  0  0  0  0
   -0.6432   -1.9252   -9.2270 H   0  0  0  0  0  0  0  0  0  0  0  0
    2.1101    0.0905   -6.2198 H   0  0  0  0  0  0  0  0  0  0  0  0
    3.4155   -3.7115   -8.6312 H   0  0  0  0  0  0  0  0  0  0  0  0
    3.4547   -4.5969  -10.1371 H   0  0  0  0  0  0  0  0  0  0  0  0
    4.1173   -5.3107   -8.6864 H   0  0  0  0  0  0  0  0  0  0  0  0
    6.0980   -2.0669  -10.5420 H   0  0  0  0  0  0  0  0  0  0  0  0
    4.6171   -2.6932  -11.2261 H   0  0  0  0  0  0  0  0  0  0  0  0
    4.5779   -1.8078   -9.7203 H   0  0  0  0  0  0  0  0  0  0  0  0
    5.7665   -5.0817  -11.3458 H   0  0  0  0  0  0  0  0  0  0  0  0
    7.8814   -3.7351   -6.7622 H   0  0  0  0  0  0  0  0  0  0  0  0
    2.9854   -0.3720   -0.8542 H   0  0  0  0  0  0  0  0  0  0  0  0
  1  2  1  0  0  0  0
  1 39  1  0  0  0  0
  1 40  1  0  0  0  0
  1 41  1  0  0  0  0
  2  3  2  0  0  0  0
  2  4  1  0  0  0  0
  4  5  1  0  0  0  0
  4 37  2  0  0  0  0
  5  6  1  0  0  0  0
  5  7  2  0  0  0  0
  6 42  1  0  0  0  0
  7  8  1  0  0  0  0
  7  9  1  0  0  0  0
  8 43  1  0  0  0  0
  8 44  1  0  0  0  0
  8 45  1  0  0  0  0
  9 10  1  0  0  0  0
  9 11  2  0  0  0  0
 10 46  1  0  0  0  0
 11 12  1  0  0  0  0
 11 37  1  0  0  0  0
 12 13  1  0  0  0  0
 12 47  1  0  0  0  0
 12 48  1  0  0  0  0
 13 14  1  0  0  0  0
 13 29  2  0  0  0  0
 14 15  1  0  0  0  0
 14 16  2  0  0  0  0
 15 49  1  0  0  0  0
 16 17  1  0  0  0  0
 16 36  1  0  0  0  0
 17 18  2  0  0  0  0
 17 31  1  0  0  0  0
 18 19  1  0  0  0  0
 18 29  1  0  0  0  0
 19 20  2  0  0  0  0
 19 21  1  0  0  0  0
 21 22  2  0  0  0  0
 21 50  1  0  0  0  0
 22 23  1  0  0  0  0
 22 51  1  0  0  0  0
 23 24  1  0  0  0  0
 23 28  2  0  0  0  0
 24 25  2  0  0  0  0
 24 52  1  0  0  0  0
 25 26  1  0  0  0  0
 25 53  1  0  0  0  0
 26 27  2  0  0  0  0
 26 54  1  0  0  0  0
 27 28  1  0  0  0  0
 27 55  1  0  0  0  0
 28 56  1  0  0  0  0
 29 30  1  0  0  0  0
 30 57  1  0  0  0  0
 31 32  1  0  0  0  0
 32 33  1  0  0  0  0
 32 34  1  0  0  0  0
 32 35  1  0  0  0  0
 33 58  1  0  0  0  0
 33 59  1  0  0  0  0
 33 60  1  0  0  0  0
 34 61  1  0  0  0  0
 34 62  1  0  0  0  0
 34 63  1  0  0  0  0
 35 36  2  0  0  0  0
 35 64  1  0  0  0  0
 36 65  1  0  0  0  0
 37 38  1  0  0  0  0
 38 66  1  0  0  0  0
M  END
