
 OpenBabel03132512093D

 43 44  0  0  0  0  0  0  0  0999 V2000
    0.9804   -0.0981    0.0008 C   0  0  0  0  0  0  0  0  0  0  0  0
    0.4738    1.2721    0.4208 C   0  0  0  0  0  0  0  0  0  0  0  0
    0.9638    2.2864   -0.5237 N   0  0  0  0  0  0  0  0  0  0  0  0
    0.0085    3.1041   -1.2851 C   0  0  0  0  0  0  0  0  0  0  0  0
    0.2239    4.5724   -0.9566 C   0  0  0  0  0  0  0  0  0  0  0  0
    2.4090    2.4829   -0.7068 C   0  0  0  0  0  0  0  0  0  0  0  0
    3.2360    1.3945   -0.8441 C   0  0  0  0  0  0  0  0  0  0  0  0
    4.5926    1.5715   -1.0056 C   0  0  0  0  0  0  0  0  0  0  0  0
    5.1531    2.8525   -1.0447 C   0  0  0  0  0  0  0  0  0  0  0  0
    6.6516    3.0520   -1.2038 C   0  0  0  0  0  0  0  0  0  0  0  0
    7.4467    2.0090   -1.3077 N   0  0  0  0  0  0  0  0  0  0  0  0
    6.9051    0.6969   -1.2712 N   0  0  0  0  0  0  0  0  0  0  0  0
    5.4560    0.5039   -1.1173 C   0  0  0  0  0  0  0  0  0  0  0  0
    4.9712   -0.6705   -1.0846 O   0  0  0  0  0  0  0  0  0  0  0  0
    4.5373    1.7089   -0.9973 C   0  0  0  0  0  0  0  0  0  0  0  0
    4.6804    2.8090   -1.8465 C   0  0  0  0  0  0  0  0  0  0  0  0
    3.8174    3.8799   -1.7219 C   0  0  0  0  0  0  0  0  0  0  0  0
    2.8468    3.9214   -0.7957 N   0  0  0  0  0  0  0  0  0  0  0  0
    2.7283    2.8753    0.0278 C   0  0  0  0  0  0  0  0  0  0  0  0
    3.5286    1.7582   -0.0434 C   0  0  0  0  0  0  0  0  0  0  0  0
    4.2775    3.9521   -0.9311 C   0  0  0  0  0  0  0  0  0  0  0  0
    4.7270    5.2265   -0.9820 O   0  0  0  0  0  0  0  0  0  0  0  0
    2.9296    3.7621   -0.7407 C   0  0  0  0  0  0  0  0  0  0  0  0
    0.6238   -0.3243   -0.9823 H   0  0  0  0  0  0  0  0  0  0  0  0
    0.6238   -0.8363    0.6883 H   0  0  0  0  0  0  0  0  0  0  0  0
    2.0504   -0.0981    0.0008 H   0  0  0  0  0  0  0  0  0  0  0  0
   -0.5962    1.2721    0.4208 H   0  0  0  0  0  0  0  0  0  0  0  0
    0.8304    1.4983    1.4039 H   0  0  0  0  0  0  0  0  0  0  0  0
    0.1601    2.9469   -2.3326 H   0  0  0  0  0  0  0  0  0  0  0  0
   -0.9900    2.8227   -1.0231 H   0  0  0  0  0  0  0  0  0  0  0  0
    1.2224    4.8538   -1.2187 H   0  0  0  0  0  0  0  0  0  0  0  0
   -0.4715    5.1676   -1.5109 H   0  0  0  0  0  0  0  0  0  0  0  0
    0.0723    4.7295    0.0908 H   0  0  0  0  0  0  0  0  0  0  0  0
    2.8253    0.4067   -0.8256 H   0  0  0  0  0  0  0  0  0  0  0  0
    5.2275    0.7157   -1.1027 H   0  0  0  0  0  0  0  0  0  0  0  0
    7.0597    4.0408   -1.2313 H   0  0  0  0  0  0  0  0  0  0  0  0
    7.5216   -0.1117   -1.3517 H   0  0  0  0  0  0  0  0  0  0  0  0
    5.4524    2.8218   -2.5872 H   0  0  0  0  0  0  0  0  0  0  0  0
    3.9266    4.7087   -2.3898 H   0  0  0  0  0  0  0  0  0  0  0  0
    1.9707    2.9083    0.7827 H   0  0  0  0  0  0  0  0  0  0  0  0
    3.3760    0.9384    0.6270 H   0  0  0  0  0  0  0  0  0  0  0  0
    5.7008    5.4082   -1.1192 H   0  0  0  0  0  0  0  0  0  0  0  0
    2.2829    4.6058   -0.6186 H   0  0  0  0  0  0  0  0  0  0  0  0
  1  2  1  0  0  0  0
  1 24  1  0  0  0  0
  1 25  1  0  0  0  0
  1 26  1  0  0  0  0
  2  3  1  0  0  0  0
  2 27  1  0  0  0  0
  2 28  1  0  0  0  0
  3  4  1  0  0  0  0
  3  6  1  0  0  0  0
  4  5  1  0  0  0  0
  4 29  1  0  0  0  0
  4 30  1  0  0  0  0
  5 31  1  0  0  0  0
  5 32  1  0  0  0  0
  5 33  1  0  0  0  0
  6  7  1  0  0  0  0
  6 23  2  0  0  0  0
  7  8  2  0  0  0  0
  7 34  1  0  0  0  0
  8  9  1  0  0  0  0
  8 35  1  0  0  0  0
  9 10  1  0  0  0  0
  9 21  2  0  0  0  0
 10 11  2  0  0  0  0
 10 36  1  0  0  0  0
 11 12  1  0  0  0  0
 12 13  1  0  0  0  0
 12 37  1  0  0  0  0
 13 14  2  0  0  0  0
 13 15  1  0  0  0  0
 15 16  1  0  0  0  0
 15 20  2  0  0  0  0
 16 17  2  0  0  0  0
 16 38  1  0  0  0  0
 17 18  1  0  0  0  0
 17 39  1  0  0  0  0
 18 19  2  0  0  0  0
 19 20  1  0  0  0  0
 19 40  1  0  0  0  0
 20 41  1  0  0  0  0
 21 22  1  0  0  0  0
 21 23  1  0  0  0  0
 22 42  1  0  0  0  0
 23 43  1  0  0  0  0
M  END
