
 OpenBabel03132514253D

 49 50  0  0  0  0  0  0  0  0999 V2000
    1.0496    0.0847    0.0189 C   0  0  0  0  0  0  0  0  0  0  0  0
    0.3694    0.6894    1.0301 C   0  0  0  0  0  0  0  0  0  0  0  0
   -1.1506    0.6894    1.0301 C   0  0  0  0  0  0  0  0  0  0  0  0
    1.1294    1.3650    2.1598 C   0  0  0  0  0  0  0  0  0  0  0  0
    1.5774    2.7242    1.7025 C   0  0  0  0  0  0  0  0  0  0  0  0
    0.7715    3.8104    1.8232 C   0  0  0  0  0  0  0  0  0  0  0  0
   -0.5307    4.5778    1.6623 C   0  0  0  0  0  0  0  0  0  0  0  0
   -0.4546    3.6682    2.4374 C   0  0  0  0  0  0  0  0  0  0  0  0
   -0.7393    2.5855    3.2115 C   0  0  0  0  0  0  0  0  0  0  0  0
    0.2906    1.5075    3.4305 C   0  0  0  0  0  0  0  0  0  0  0  0
    0.4377    0.8290    4.4951 O   0  0  0  0  0  0  0  0  0  0  0  0
   -1.6840    4.9237    2.2432 C   0  0  0  0  0  0  0  0  0  0  0  0
   -0.5761    6.3625    2.2439 C   0  0  0  0  0  0  0  0  0  0  0  0
    0.3865    6.1732    1.1538 C   0  0  0  0  0  0  0  0  0  0  0  0
   -0.3840    5.8806   -0.0025 O   0  0  0  0  0  0  0  0  0  0  0  0
   -1.2063    4.7233   -0.0335 C   0  0  0  0  0  0  0  0  0  0  0  0
   -1.2526    3.9495    0.9736 O   0  0  0  0  0  0  0  0  0  0  0  0
   -2.0310    4.4100   -1.2713 C   0  0  0  0  0  0  0  0  0  0  0  0
   -1.9814    5.2383   -2.3493 C   0  0  0  0  0  0  0  0  0  0  0  0
   -2.9636    4.8652   -3.8232 S   0  0  0  0  0  0  0  0  0  0  0  0
   -3.8974    3.3380   -3.5553 C   0  0  0  0  0  0  0  0  0  0  0  0
    1.2936    5.0674    1.3166 C   0  0  0  0  0  0  0  0  0  0  0  0
    1.7392    4.7409   -0.0994 C   0  0  0  0  0  0  0  0  0  0  0  0
    0.5146   -0.3909   -0.7763 H   0  0  0  0  0  0  0  0  0  0  0  0
    2.1196    0.0847    0.0189 H   0  0  0  0  0  0  0  0  0  0  0  0
   -1.5073    0.1985    1.9114 H   0  0  0  0  0  0  0  0  0  0  0  0
   -1.5073    1.6981    1.0146 H   0  0  0  0  0  0  0  0  0  0  0  0
   -1.5073    0.1716    0.1643 H   0  0  0  0  0  0  0  0  0  0  0  0
    1.9682    0.7465    2.4021 H   0  0  0  0  0  0  0  0  0  0  0  0
    2.3718    2.9479    2.3834 H   0  0  0  0  0  0  0  0  0  0  0  0
    1.8081    2.6326    0.6617 H   0  0  0  0  0  0  0  0  0  0  0  0
   -0.7842    4.6365    0.6244 H   0  0  0  0  0  0  0  0  0  0  0  0
   -1.3107    4.0717    2.1919 H   0  0  0  0  0  0  0  0  0  0  0  0
   -0.4139    5.5653    2.0574 H   0  0  0  0  0  0  0  0  0  0  0  0
   -1.7029    2.4990    3.6686 H   0  0  0  0  0  0  0  0  0  0  0  0
   -2.3260    4.8253    1.3929 H   0  0  0  0  0  0  0  0  0  0  0  0
   -2.3754    4.9439    3.0595 H   0  0  0  0  0  0  0  0  0  0  0  0
   -1.1306    7.2672    2.1064 H   0  0  0  0  0  0  0  0  0  0  0  0
   -0.0613    6.4275    3.1797 H   0  0  0  0  0  0  0  0  0  0  0  0
    0.9680    7.0674    1.0679 H   0  0  0  0  0  0  0  0  0  0  0  0
   -2.6506    3.5379   -1.2947 H   0  0  0  0  0  0  0  0  0  0  0  0
   -1.3618    6.1103   -2.3259 H   0  0  0  0  0  0  0  0  0  0  0  0
   -3.2182    2.5332   -3.3662 H   0  0  0  0  0  0  0  0  0  0  0  0
   -4.5480    3.4606   -2.7147 H   0  0  0  0  0  0  0  0  0  0  0  0
   -4.4780    3.1175   -4.4266 H   0  0  0  0  0  0  0  0  0  0  0  0
    2.0609    5.3853    1.9913 H   0  0  0  0  0  0  0  0  0  0  0  0
    2.1819    5.6082   -0.5430 H   0  0  0  0  0  0  0  0  0  0  0  0
    2.4569    3.9478   -0.0735 H   0  0  0  0  0  0  0  0  0  0  0  0
    0.8924    4.4369   -0.6786 H   0  0  0  0  0  0  0  0  0  0  0  0
  1  2  2  0  0  0  0
  1 24  1  0  0  0  0
  1 25  1  0  0  0  0
  2  3  1  0  0  0  0
  2  4  1  0  0  0  0
  3 26  1  0  0  0  0
  3 27  1  0  0  0  0
  3 28  1  0  0  0  0
  4  5  1  0  0  0  0
  4 10  1  0  0  0  0
  4 29  1  0  0  0  0
  5  6  1  0  0  0  0
  5 30  1  0  0  0  0
  5 31  1  0  0  0  0
  6  7  1  0  0  0  0
  6  8  1  0  0  0  0
  6 22  1  0  0  0  0
  7 32  1  0  0  0  0
  7 33  1  0  0  0  0
  7 34  1  0  0  0  0
  8  9  2  0  0  0  0
  8 12  1  0  0  0  0
  9 10  1  0  0  0  0
  9 35  1  0  0  0  0
 10 11  2  0  0  0  0
 12 13  1  0  0  0  0
 12 36  1  0  0  0  0
 12 37  1  0  0  0  0
 13 14  1  0  0  0  0
 13 38  1  0  0  0  0
 13 39  1  0  0  0  0
 14 15  1  0  0  0  0
 14 22  1  0  0  0  0
 14 40  1  0  0  0  0
 15 16  1  0  0  0  0
 16 17  2  0  0  0  0
 16 18  1  0  0  0  0
 18 19  2  0  0  0  0
 18 41  1  0  0  0  0
 19 20  1  0  0  0  0
 19 42  1  0  0  0  0
 20 21  1  0  0  0  0
 21 43  1  0  0  0  0
 21 44  1  0  0  0  0
 21 45  1  0  0  0  0
 22 23  1  0  0  0  0
 22 46  1  0  0  0  0
 23 47  1  0  0  0  0
 23 48  1  0  0  0  0
 23 49  1  0  0  0  0
M  END
