
 OpenBabel03132512093D

 39 42  0  0  0  0  0  0  0  0999 V2000
    2.2370    0.0050   -0.0110 O   0  0  0  0  0  0  0  0  0  0  0  0
    0.8850   -0.0250   -0.0010 C   0  0  0  0  0  0  0  0  0  0  0  0
    0.2240    1.1800    0.0160 C   0  0  0  0  0  0  0  0  0  0  0  0
   -1.1570    1.2120    0.0000 C   0  0  0  0  0  0  0  0  0  0  0  0
   -1.8770    0.0420   -0.0140 C   0  0  0  0  0  0  0  0  0  0  0  0
   -3.3960    0.0872   -0.0439 C   0  0  0  0  0  0  0  0  0  0  0  0
   -4.1611   -0.4328    0.8801 N   0  0  0  0  0  0  0  0  0  0  0  0
   -5.4708   -0.1831    0.4588 C   0  0  0  0  0  0  0  0  0  0  0  0
   -6.7241   -0.6013    1.2103 C   0  0  0  0  0  0  0  0  0  0  0  0
   -6.9501   -0.1354    2.4968 C   0  0  0  0  0  0  0  0  0  0  0  0
   -8.0936   -0.4986    3.1907 C   0  0  0  0  0  0  0  0  0  0  0  0
   -8.9846   -1.2908    2.5688 C   0  0  0  0  0  0  0  0  0  0  0  0
  -10.1079   -1.6467    3.2421 F   0  0  0  0  0  0  0  0  0  0  0  0
   -8.8088   -1.7642    1.3136 C   0  0  0  0  0  0  0  0  0  0  0  0
   -7.6534   -1.4159    0.6316 C   0  0  0  0  0  0  0  0  0  0  0  0
   -5.4566    0.4908   -0.7256 C   0  0  0  0  0  0  0  0  0  0  0  0
   -6.6637    0.9430   -1.5310 C   0  0  0  0  0  0  0  0  0  0  0  0
   -7.5975    1.8223   -0.9771 C   0  0  0  0  0  0  0  0  0  0  0  0
   -8.6600    2.2567   -1.7449 C   0  0  0  0  0  0  0  0  0  0  0  0
   -8.8505    1.8509   -3.0100 N   0  0  0  0  0  0  0  0  0  0  0  0
   -7.9657    0.9931   -3.5276 C   0  0  0  0  0  0  0  0  0  0  0  0
   -6.8662    0.5301   -2.8418 C   0  0  0  0  0  0  0  0  0  0  0  0
   -4.1296    0.6810   -1.0482 N   0  0  0  0  0  0  0  0  0  0  0  0
   -1.2260   -1.1720   -0.0010 C   0  0  0  0  0  0  0  0  0  0  0  0
    0.1710   -1.2410    0.0150 C   0  0  0  0  0  0  0  0  0  0  0  0
    2.7560   -0.8497   -0.0234 H   0  0  0  0  0  0  0  0  0  0  0  0
    0.7796    2.0941    0.0416 H   0  0  0  0  0  0  0  0  0  0  0  0
   -1.6681    2.1520   -0.0015 H   0  0  0  0  0  0  0  0  0  0  0  0
   -6.2339    0.5115    2.9587 H   0  0  0  0  0  0  0  0  0  0  0  0
   -8.2623   -0.1589    4.1912 H   0  0  0  0  0  0  0  0  0  0  0  0
   -9.5448   -2.3930    0.8577 H   0  0  0  0  0  0  0  0  0  0  0  0
   -7.4887   -1.7892   -0.3575 H   0  0  0  0  0  0  0  0  0  0  0  0
   -7.4903    2.1563    0.0338 H   0  0  0  0  0  0  0  0  0  0  0  0
   -9.3585    2.9436   -1.3145 H   0  0  0  0  0  0  0  0  0  0  0  0
   -8.1206    0.6480   -4.5285 H   0  0  0  0  0  0  0  0  0  0  0  0
   -6.1763   -0.1391   -3.3120 H   0  0  0  0  0  0  0  0  0  0  0  0
   -3.7633    1.1653   -1.8678 H   0  0  0  0  0  0  0  0  0  0  0  0
   -1.7979   -2.0763   -0.0032 H   0  0  0  0  0  0  0  0  0  0  0  0
    0.6794   -2.1822    0.0385 H   0  0  0  0  0  0  0  0  0  0  0  0
  1  2  1  0  0  0  0
  1 26  1  0  0  0  0
  2  3  1  0  0  0  0
  2 25  2  0  0  0  0
  3  4  2  0  0  0  0
  3 27  1  0  0  0  0
  4  5  1  0  0  0  0
  4 28  1  0  0  0  0
  5  6  1  0  0  0  0
  5 24  2  0  0  0  0
  6  7  2  0  0  0  0
  6 23  1  0  0  0  0
  7  8  1  0  0  0  0
  8  9  1  0  0  0  0
  8 16  2  0  0  0  0
  9 10  1  0  0  0  0
  9 15  2  0  0  0  0
 10 11  2  0  0  0  0
 10 29  1  0  0  0  0
 11 12  1  0  0  0  0
 11 30  1  0  0  0  0
 12 13  1  0  0  0  0
 12 14  2  0  0  0  0
 14 15  1  0  0  0  0
 14 31  1  0  0  0  0
 15 32  1  0  0  0  0
 16 17  1  0  0  0  0
 16 23  1  0  0  0  0
 17 18  1  0  0  0  0
 17 22  2  0  0  0  0
 18 19  2  0  0  0  0
 18 33  1  0  0  0  0
 19 20  1  0  0  0  0
 19 34  1  0  0  0  0
 20 21  2  0  0  0  0
 21 22  1  0  0  0  0
 21 35  1  0  0  0  0
 22 36  1  0  0  0  0
 23 37  1  0  0  0  0
 24 25  1  0  0  0  0
 24 38  1  0  0  0  0
 25 39  1  0  0  0  0
M  END
