
 OpenBabel03132514253D

 43 46  0  0  0  0  0  0  0  0999 V2000
    0.9767   -0.0451    0.0861 C   0  0  0  0  0  0  0  0  0  0  0  0
    0.3733    1.1646   -1.1175 S   0  0  0  0  0  0  0  0  0  0  0  0
   -1.1571    1.1646   -1.1175 O   0  0  0  0  0  0  0  0  0  0  0  0
    0.9767    2.8118   -0.6717 C   0  0  0  0  0  0  0  0  0  0  0  0
    1.8624    2.9861    0.3789 C   0  0  0  0  0  0  0  0  0  0  0  0
    1.9670    4.3250    0.8244 C   0  0  0  0  0  0  0  0  0  0  0  0
    1.5773    5.3782    0.1294 C   0  0  0  0  0  0  0  0  0  0  0  0
    2.0156    6.7866    0.4961 C   0  0  0  0  0  0  0  0  0  0  0  0
    1.2363    7.7855    0.8191 N   0  0  0  0  0  0  0  0  0  0  0  0
    2.0891    8.8811    0.9839 C   0  0  0  0  0  0  0  0  0  0  0  0
    1.6446   10.2838    1.3653 C   0  0  0  0  0  0  0  0  0  0  0  0
    1.9772   11.3247    0.5142 C   0  0  0  0  0  0  0  0  0  0  0  0
    1.8519   12.6065    1.1000 C   0  0  0  0  0  0  0  0  0  0  0  0
    1.1586   12.8657    2.1936 C   0  0  0  0  0  0  0  0  0  0  0  0
    0.8257   14.1074    2.5345 F   0  0  0  0  0  0  0  0  0  0  0  0
    0.8013   11.7888    2.9566 C   0  0  0  0  0  0  0  0  0  0  0  0
    1.0098   10.5062    2.5102 C   0  0  0  0  0  0  0  0  0  0  0  0
    3.3782    8.5046    0.7519 C   0  0  0  0  0  0  0  0  0  0  0  0
    4.6112    9.3915    0.8116 C   0  0  0  0  0  0  0  0  0  0  0  0
    4.9697   10.0548    1.9878 C   0  0  0  0  0  0  0  0  0  0  0  0
    6.1074   10.8375    2.0063 C   0  0  0  0  0  0  0  0  0  0  0  0
    6.8838   11.0089    0.9249 N   0  0  0  0  0  0  0  0  0  0  0  0
    6.5240   10.3891   -0.2033 C   0  0  0  0  0  0  0  0  0  0  0  0
    5.4214    9.5717   -0.3023 C   0  0  0  0  0  0  0  0  0  0  0  0
    3.3418    7.1592    0.4524 N   0  0  0  0  0  0  0  0  0  0  0  0
    0.7582    5.1334   -0.9377 C   0  0  0  0  0  0  0  0  0  0  0  0
    0.5034    3.8487   -1.3529 C   0  0  0  0  0  0  0  0  0  0  0  0
    0.6200   -1.0189   -0.1774 H   0  0  0  0  0  0  0  0  0  0  0  0
    0.6200    0.2135    1.0612 H   0  0  0  0  0  0  0  0  0  0  0  0
    2.0467   -0.0451    0.0861 H   0  0  0  0  0  0  0  0  0  0  0  0
    2.4171    2.1813    0.8142 H   0  0  0  0  0  0  0  0  0  0  0  0
    2.3915    4.4961    1.7916 H   0  0  0  0  0  0  0  0  0  0  0  0
    2.2997   11.1732   -0.4948 H   0  0  0  0  0  0  0  0  0  0  0  0
    2.3539   13.4227    0.6237 H   0  0  0  0  0  0  0  0  0  0  0  0
    0.3529   11.9472    3.9151 H   0  0  0  0  0  0  0  0  0  0  0  0
    0.6576    9.6790    3.0905 H   0  0  0  0  0  0  0  0  0  0  0  0
    4.3679    9.9571    2.8670 H   0  0  0  0  0  0  0  0  0  0  0  0
    6.3805   11.3262    2.9181 H   0  0  0  0  0  0  0  0  0  0  0  0
    7.1253   10.5363   -1.0760 H   0  0  0  0  0  0  0  0  0  0  0  0
    5.1913    9.0813   -1.2251 H   0  0  0  0  0  0  0  0  0  0  0  0
    4.1385    6.5586    0.2404 H   0  0  0  0  0  0  0  0  0  0  0  0
    0.3091    5.9542   -1.4568 H   0  0  0  0  0  0  0  0  0  0  0  0
   -0.0815    3.6822   -2.2333 H   0  0  0  0  0  0  0  0  0  0  0  0
  1  2  1  0  0  0  0
  1 28  1  0  0  0  0
  1 29  1  0  0  0  0
  1 30  1  0  0  0  0
  2  3  2  0  0  0  0
  2  4  1  0  0  0  0
  4  5  1  0  0  0  0
  4 27  2  0  0  0  0
  5  6  2  0  0  0  0
  5 31  1  0  0  0  0
  6  7  1  0  0  0  0
  6 32  1  0  0  0  0
  7  8  1  0  0  0  0
  7 26  2  0  0  0  0
  8  9  2  0  0  0  0
  8 25  1  0  0  0  0
  9 10  1  0  0  0  0
 10 11  1  0  0  0  0
 10 18  2  0  0  0  0
 11 12  1  0  0  0  0
 11 17  2  0  0  0  0
 12 13  2  0  0  0  0
 12 33  1  0  0  0  0
 13 14  1  0  0  0  0
 13 34  1  0  0  0  0
 14 15  1  0  0  0  0
 14 16  2  0  0  0  0
 16 17  1  0  0  0  0
 16 35  1  0  0  0  0
 17 36  1  0  0  0  0
 18 19  1  0  0  0  0
 18 25  1  0  0  0  0
 19 20  1  0  0  0  0
 19 24  2  0  0  0  0
 20 21  2  0  0  0  0
 20 37  1  0  0  0  0
 21 22  1  0  0  0  0
 21 38  1  0  0  0  0
 22 23  2  0  0  0  0
 23 24  1  0  0  0  0
 23 39  1  0  0  0  0
 24 40  1  0  0  0  0
 25 41  1  0  0  0  0
 26 27  1  0  0  0  0
 26 42  1  0  0  0  0
 27 43  1  0  0  0  0
M  END
