
 OpenBabel03132512093D

 50 53  0  0  0  0  0  0  0  0999 V2000
    2.1370   -0.0110   -0.0020 F   0  0  0  0  0  0  0  0  0  0  0  0
    0.7800   -0.0010    0.0050 C   0  0  0  0  0  0  0  0  0  0  0  0
    0.1270   -1.1860    0.0050 C   0  0  0  0  0  0  0  0  0  0  0  0
   -1.2590   -1.1770   -0.0060 C   0  0  0  0  0  0  0  0  0  0  0  0
   -1.9460    0.0020   -0.0010 C   0  0  0  0  0  0  0  0  0  0  0  0
   -3.4660    0.0108   -0.0020 C   0  0  0  0  0  0  0  0  0  0  0  0
   -4.2140    0.5528   -0.9239 N   0  0  0  0  0  0  0  0  0  0  0  0
   -5.5056    0.3614   -0.5610 C   0  0  0  0  0  0  0  0  0  0  0  0
   -5.4666   -0.3254    0.6067 N   0  0  0  0  0  0  0  0  0  0  0  0
   -6.6255   -0.7743    1.3918 C   0  0  0  0  0  0  0  0  0  0  0  0
   -6.5958   -2.2887    1.5185 C   0  0  0  0  0  0  0  0  0  0  0  0
   -5.3147   -2.7137    2.2176 C   0  0  0  0  0  0  0  0  0  0  0  0
   -5.2635   -2.1089    3.5565 N   0  0  0  0  0  0  0  0  0  0  0  0
   -6.3332   -1.1017    3.6775 C   0  0  0  0  0  0  0  0  0  0  0  0
   -6.0860    0.0145    2.6876 C   0  0  0  0  0  0  0  0  0  0  0  0
   -4.8065    0.6114    2.8981 O   0  0  0  0  0  0  0  0  0  0  0  0
   -3.7808   -0.3695    2.7424 C   0  0  0  0  0  0  0  0  0  0  0  0
   -3.9371   -1.4899    3.7532 C   0  0  0  0  0  0  0  0  0  0  0  0
   -4.2104   -0.5147    0.9055 C   0  0  0  0  0  0  0  0  0  0  0  0
   -3.7042   -1.2453    2.1385 C   0  0  0  0  0  0  0  0  0  0  0  0
   -2.8931   -0.5533    3.0414 C   0  0  0  0  0  0  0  0  0  0  0  0
   -2.3121   -1.2347    4.0927 C   0  0  0  0  0  0  0  0  0  0  0  0
   -2.4767   -2.5540    4.2772 N   0  0  0  0  0  0  0  0  0  0  0  0
   -3.2363   -3.2147    3.3981 C   0  0  0  0  0  0  0  0  0  0  0  0
   -3.8720   -2.6097    2.3381 C   0  0  0  0  0  0  0  0  0  0  0  0
   -1.2340    1.1920    0.0050 C   0  0  0  0  0  0  0  0  0  0  0  0
    0.1520    1.1880   -0.0060 C   0  0  0  0  0  0  0  0  0  0  0  0
    0.6682   -2.1090    0.0133 H   0  0  0  0  0  0  0  0  0  0  0  0
   -1.7951   -2.1029   -0.0185 H   0  0  0  0  0  0  0  0  0  0  0  0
   -6.3780    0.6861   -1.0886 H   0  0  0  0  0  0  0  0  0  0  0  0
   -6.5881   -0.3341    2.3664 H   0  0  0  0  0  0  0  0  0  0  0  0
   -7.5272   -0.4752    0.8996 H   0  0  0  0  0  0  0  0  0  0  0  0
   -7.4393   -2.6155    2.0899 H   0  0  0  0  0  0  0  0  0  0  0  0
   -6.6331   -2.7289    0.5439 H   0  0  0  0  0  0  0  0  0  0  0  0
   -5.2938   -3.7798    2.3068 H   0  0  0  0  0  0  0  0  0  0  0  0
   -4.4712   -2.3869    1.6461 H   0  0  0  0  0  0  0  0  0  0  0  0
   -6.3390   -0.7039    4.6708 H   0  0  0  0  0  0  0  0  0  0  0  0
   -7.2787   -1.5585    3.4718 H   0  0  0  0  0  0  0  0  0  0  0  0
   -6.1128   -0.3945    1.6992 H   0  0  0  0  0  0  0  0  0  0  0  0
   -6.8438    0.7607    2.8054 H   0  0  0  0  0  0  0  0  0  0  0  0
   -2.8335    0.1017    2.9018 H   0  0  0  0  0  0  0  0  0  0  0  0
   -3.8363   -0.7792    1.7555 H   0  0  0  0  0  0  0  0  0  0  0  0
   -3.8537   -1.1040    4.7477 H   0  0  0  0  0  0  0  0  0  0  0  0
   -3.1705   -2.2214    3.6041 H   0  0  0  0  0  0  0  0  0  0  0  0
   -2.7235    0.4961    2.9194 H   0  0  0  0  0  0  0  0  0  0  0  0
   -1.7072   -0.6898    4.7870 H   0  0  0  0  0  0  0  0  0  0  0  0
   -3.3566   -4.2703    3.5252 H   0  0  0  0  0  0  0  0  0  0  0  0
   -4.4873   -3.1827    1.6764 H   0  0  0  0  0  0  0  0  0  0  0  0
   -1.7604    2.1235    0.0183 H   0  0  0  0  0  0  0  0  0  0  0  0
    0.7056    2.1035   -0.0227 H   0  0  0  0  0  0  0  0  0  0  0  0
  1  2  1  0  0  0  0
  2  3  1  0  0  0  0
  2 27  2  0  0  0  0
  3  4  2  0  0  0  0
  3 28  1  0  0  0  0
  4  5  1  0  0  0  0
  4 29  1  0  0  0  0
  5  6  1  0  0  0  0
  5 26  2  0  0  0  0
  6  7  1  0  0  0  0
  6 19  2  0  0  0  0
  7  8  2  0  0  0  0
  8  9  1  0  0  0  0
  8 30  1  0  0  0  0
  9 10  1  0  0  0  0
  9 19  1  0  0  0  0
 10 11  1  0  0  0  0
 10 31  1  0  0  0  0
 10 32  1  0  0  0  0
 11 12  1  0  0  0  0
 11 33  1  0  0  0  0
 11 34  1  0  0  0  0
 12 13  1  0  0  0  0
 12 35  1  0  0  0  0
 12 36  1  0  0  0  0
 13 14  1  0  0  0  0
 13 18  1  0  0  0  0
 14 15  1  0  0  0  0
 14 37  1  0  0  0  0
 14 38  1  0  0  0  0
 15 16  1  0  0  0  0
 15 39  1  0  0  0  0
 15 40  1  0  0  0  0
 16 17  1  0  0  0  0
 17 18  1  0  0  0  0
 17 41  1  0  0  0  0
 17 42  1  0  0  0  0
 18 43  1  0  0  0  0
 18 44  1  0  0  0  0
 19 20  1  0  0  0  0
 20 21  1  0  0  0  0
 20 25  2  0  0  0  0
 21 22  2  0  0  0  0
 21 45  1  0  0  0  0
 22 23  1  0  0  0  0
 22 46  1  0  0  0  0
 23 24  2  0  0  0  0
 24 25  1  0  0  0  0
 24 47  1  0  0  0  0
 25 48  1  0  0  0  0
 26 27  1  0  0  0  0
 26 49  1  0  0  0  0
 27 50  1  0  0  0  0
M  END
