
 OpenBabel03132512093D

 45 49  0  0  0  0  0  0  0  0999 V2000
    0.9613   -0.0909   -0.0156 N   0  0  0  0  0  0  0  0  0  0  0  0
    0.2263    1.1500   -0.3000 C   0  0  0  0  0  0  0  0  0  0  0  0
   -1.0446    1.1500   -0.3000 O   0  0  0  0  0  0  0  0  0  0  0  0
    0.9863    2.4331   -0.5940 C   0  0  0  0  0  0  0  0  0  0  0  0
    0.6101    3.6243    0.0044 C   0  0  0  0  0  0  0  0  0  0  0  0
    1.2112    4.7693   -0.5700 C   0  0  0  0  0  0  0  0  0  0  0  0
    2.2852    4.7457   -1.3381 C   0  0  0  0  0  0  0  0  0  0  0  0
    3.0789    6.0054   -1.6440 C   0  0  0  0  0  0  0  0  0  0  0  0
    3.2856    6.5019   -2.8357 N   0  0  0  0  0  0  0  0  0  0  0  0
    4.0540    7.6515   -2.6287 C   0  0  0  0  0  0  0  0  0  0  0  0
    4.5504    8.5789   -3.7260 C   0  0  0  0  0  0  0  0  0  0  0  0
    5.8895    8.7168   -4.0525 C   0  0  0  0  0  0  0  0  0  0  0  0
    6.1436    9.7184   -5.0191 C   0  0  0  0  0  0  0  0  0  0  0  0
    5.2293   10.2368   -5.8186 C   0  0  0  0  0  0  0  0  0  0  0  0
    3.9246   10.0076   -5.4798 C   0  0  0  0  0  0  0  0  0  0  0  0
    3.6003    9.1433   -4.4621 C   0  0  0  0  0  0  0  0  0  0  0  0
    2.8900   10.6723   -6.1898 O   0  0  0  0  0  0  0  0  0  0  0  0
    1.5316   10.4417   -5.8463 C   0  0  0  0  0  0  0  0  0  0  0  0
    5.5821   10.9918   -6.9684 O   0  0  0  0  0  0  0  0  0  0  0  0
    4.2917    7.8171   -1.2970 C   0  0  0  0  0  0  0  0  0  0  0  0
    5.0961    8.9309   -0.6468 C   0  0  0  0  0  0  0  0  0  0  0  0
    4.6203   10.2076   -0.8722 C   0  0  0  0  0  0  0  0  0  0  0  0
    5.2587   11.2949   -0.2705 C   0  0  0  0  0  0  0  0  0  0  0  0
    6.3462   11.0291    0.5520 C   0  0  0  0  0  0  0  0  0  0  0  0
    6.7393    9.7241    0.7415 C   0  0  0  0  0  0  0  0  0  0  0  0
    6.1458    8.6818    0.1517 N   0  0  0  0  0  0  0  0  0  0  0  0
    3.6577    6.7734   -0.6568 N   0  0  0  0  0  0  0  0  0  0  0  0
    2.6447    3.5272   -1.8435 C   0  0  0  0  0  0  0  0  0  0  0  0
    2.0171    2.3772   -1.4292 C   0  0  0  0  0  0  0  0  0  0  0  0
    0.4513   -0.9519    0.1817 H   0  0  0  0  0  0  0  0  0  0  0  0
    1.9813   -0.0909   -0.0156 H   0  0  0  0  0  0  0  0  0  0  0  0
   -0.0730    3.6742    0.8264 H   0  0  0  0  0  0  0  0  0  0  0  0
    0.7645    5.7203   -0.3680 H   0  0  0  0  0  0  0  0  0  0  0  0
    6.6616    8.1202   -3.6135 H   0  0  0  0  0  0  0  0  0  0  0  0
    7.1463   10.0809   -5.1085 H   0  0  0  0  0  0  0  0  0  0  0  0
    2.5727    8.9230   -4.2609 H   0  0  0  0  0  0  0  0  0  0  0  0
    1.3685   10.7241   -4.8272 H   0  0  0  0  0  0  0  0  0  0  0  0
    0.8989   11.0236   -6.4834 H   0  0  0  0  0  0  0  0  0  0  0  0
    3.7698   10.3628   -1.5026 H   0  0  0  0  0  0  0  0  0  0  0  0
    4.9220   12.2968   -0.4373 H   0  0  0  0  0  0  0  0  0  0  0  0
    6.8712   11.8286    1.0317 H   0  0  0  0  0  0  0  0  0  0  0  0
    7.5641    9.5336    1.3960 H   0  0  0  0  0  0  0  0  0  0  0  0
    3.6237    6.6034    0.3484 H   0  0  0  0  0  0  0  0  0  0  0  0
    3.4261    3.4683   -2.5721 H   0  0  0  0  0  0  0  0  0  0  0  0
    2.3621    1.4281   -1.7829 H   0  0  0  0  0  0  0  0  0  0  0  0
  1  2  1  0  0  0  0
  1 30  1  0  0  0  0
  1 31  1  0  0  0  0
  2  3  2  0  0  0  0
  2  4  1  0  0  0  0
  4  5  1  0  0  0  0
  4 29  2  0  0  0  0
  5  6  2  0  0  0  0
  5 32  1  0  0  0  0
  6  7  1  0  0  0  0
  6 33  1  0  0  0  0
  7  8  1  0  0  0  0
  7 28  2  0  0  0  0
  8  9  2  0  0  0  0
  8 27  1  0  0  0  0
  9 10  1  0  0  0  0
 10 11  1  0  0  0  0
 10 20  2  0  0  0  0
 11 12  1  0  0  0  0
 11 16  2  0  0  0  0
 12 13  2  0  0  0  0
 12 34  1  0  0  0  0
 13 14  1  0  0  0  0
 13 35  1  0  0  0  0
 14 15  2  0  0  0  0
 14 19  1  0  0  0  0
 15 16  1  0  0  0  0
 15 17  1  0  0  0  0
 16 36  1  0  0  0  0
 17 18  1  0  0  0  0
 18 19  1  0  0  0  0
 18 37  1  0  0  0  0
 18 38  1  0  0  0  0
 20 21  1  0  0  0  0
 20 27  1  0  0  0  0
 21 22  1  0  0  0  0
 21 26  2  0  0  0  0
 22 23  2  0  0  0  0
 22 39  1  0  0  0  0
 23 24  1  0  0  0  0
 23 40  1  0  0  0  0
 24 25  2  0  0  0  0
 24 41  1  0  0  0  0
 25 26  1  0  0  0  0
 25 42  1  0  0  0  0
 27 43  1  0  0  0  0
 28 29  1  0  0  0  0
 28 44  1  0  0  0  0
 29 45  1  0  0  0  0
M  END
