
 OpenBabel03132512093D

 48 51  0  0  0  0  0  0  0  0999 V2000
    0.9207    0.0450   -0.0411 C   0  0  0  0  0  0  0  0  0  0  0  0
    0.4140   -0.2710   -1.4389 C   0  0  0  0  0  0  0  0  0  0  0  0
    0.9040   -1.5945   -1.8502 N   0  0  0  0  0  0  0  0  0  0  0  0
    0.2768   -2.6364   -1.0269 C   0  0  0  0  0  0  0  0  0  0  0  0
    0.8222   -4.0003   -1.3911 C   0  0  0  0  0  0  0  0  0  0  0  0
    0.5932   -4.3008   -2.8707 C   0  0  0  0  0  0  0  0  0  0  0  0
    1.3231   -5.5834   -3.2350 C   0  0  0  0  0  0  0  0  0  0  0  0
    0.6724   -6.5804   -3.6797 O   0  0  0  0  0  0  0  0  0  0  0  0
    2.7815   -5.6705   -3.0730 N   0  0  0  0  0  0  0  0  0  0  0  0
    3.5341   -4.5173   -2.5587 C   0  0  0  0  0  0  0  0  0  0  0  0
    4.6106   -4.0631   -3.1307 N   0  0  0  0  0  0  0  0  0  0  0  0
    5.0687   -2.9241   -2.4617 N   0  0  0  0  0  0  0  0  0  0  0  0
    4.2219   -2.6542   -1.4060 C   0  0  0  0  0  0  0  0  0  0  0  0
    4.1934   -1.6673   -0.4272 N   0  0  0  0  0  0  0  0  0  0  0  0
    3.1882   -1.6604    0.5136 N   0  0  0  0  0  0  0  0  0  0  0  0
    2.1996   -2.6445    0.5013 C   0  0  0  0  0  0  0  0  0  0  0  0
    1.1044   -2.6298    1.5553 C   0  0  0  0  0  0  0  0  0  0  0  0
    0.9332   -3.7054    2.4200 C   0  0  0  0  0  0  0  0  0  0  0  0
    0.2826   -3.4339    3.6443 C   0  0  0  0  0  0  0  0  0  0  0  0
   -0.7337   -2.4810    3.6055 C   0  0  0  0  0  0  0  0  0  0  0  0
   -0.7188   -1.5904    2.6364 C   0  0  0  0  0  0  0  0  0  0  0  0
   -1.6785   -0.6718    2.5731 F   0  0  0  0  0  0  0  0  0  0  0  0
    0.2950   -1.5991    1.6721 C   0  0  0  0  0  0  0  0  0  0  0  0
    0.4422   -0.5530    0.8640 F   0  0  0  0  0  0  0  0  0  0  0  0
    2.2112   -3.6319   -0.4638 C   0  0  0  0  0  0  0  0  0  0  0  0
    3.2247   -3.6451   -1.4269 C   0  0  0  0  0  0  0  0  0  0  0  0
    1.1324   -3.1590   -3.7305 C   0  0  0  0  0  0  0  0  0  0  0  0
    0.5783   -1.8258   -3.2563 C   0  0  0  0  0  0  0  0  0  0  0  0
    0.5640   -0.6960    0.6435 H   0  0  0  0  0  0  0  0  0  0  0  0
    0.5640    1.0083    0.2583 H   0  0  0  0  0  0  0  0  0  0  0  0
    1.9907    0.0450   -0.0411 H   0  0  0  0  0  0  0  0  0  0  0  0
   -0.6560   -0.2710   -1.4389 H   0  0  0  0  0  0  0  0  0  0  0  0
    0.7707    0.4700   -2.1235 H   0  0  0  0  0  0  0  0  0  0  0  0
   -0.7786   -2.6276   -1.2030 H   0  0  0  0  0  0  0  0  0  0  0  0
    0.4805   -2.4399    0.0050 H   0  0  0  0  0  0  0  0  0  0  0  0
    0.3122   -4.7392   -0.8091 H   0  0  0  0  0  0  0  0  0  0  0  0
    1.8723   -4.0236   -1.1872 H   0  0  0  0  0  0  0  0  0  0  0  0
   -0.4555   -4.4136   -3.0503 H   0  0  0  0  0  0  0  0  0  0  0  0
    3.2713   -6.5312   -3.3175 H   0  0  0  0  0  0  0  0  0  0  0  0
    5.8946   -2.3809   -2.7130 H   0  0  0  0  0  0  0  0  0  0  0  0
    1.2765   -4.6878    2.1709 H   0  0  0  0  0  0  0  0  0  0  0  0
    0.5551   -3.9323    4.5511 H   0  0  0  0  0  0  0  0  0  0  0  0
   -1.5069   -2.4736    4.3452 H   0  0  0  0  0  0  0  0  0  0  0  0
    1.4489   -4.3827   -0.4746 H   0  0  0  0  0  0  0  0  0  0  0  0
    2.1991   -3.1387   -3.6481 H   0  0  0  0  0  0  0  0  0  0  0  0
    0.8432   -3.3182   -4.7483 H   0  0  0  0  0  0  0  0  0  0  0  0
    1.0186   -1.0456   -3.8414 H   0  0  0  0  0  0  0  0  0  0  0  0
   -0.4853   -1.8271   -3.3736 H   0  0  0  0  0  0  0  0  0  0  0  0
  1  2  1  0  0  0  0
  1 29  1  0  0  0  0
  1 30  1  0  0  0  0
  1 31  1  0  0  0  0
  2  3  1  0  0  0  0
  2 32  1  0  0  0  0
  2 33  1  0  0  0  0
  3  4  1  0  0  0  0
  3 28  1  0  0  0  0
  4  5  1  0  0  0  0
  4 34  1  0  0  0  0
  4 35  1  0  0  0  0
  5  6  1  0  0  0  0
  5 36  1  0  0  0  0
  5 37  1  0  0  0  0
  6  7  1  0  0  0  0
  6 27  1  0  0  0  0
  6 38  1  0  0  0  0
  7  8  2  0  0  0  0
  7  9  1  0  0  0  0
  9 10  1  0  0  0  0
  9 39  1  0  0  0  0
 10 11  2  0  0  0  0
 10 26  1  0  0  0  0
 11 12  1  0  0  0  0
 12 13  1  0  0  0  0
 12 40  1  0  0  0  0
 13 14  1  0  0  0  0
 13 26  2  0  0  0  0
 14 15  2  0  0  0  0
 15 16  1  0  0  0  0
 16 17  1  0  0  0  0
 16 25  2  0  0  0  0
 17 18  1  0  0  0  0
 17 23  2  0  0  0  0
 18 19  2  0  0  0  0
 18 41  1  0  0  0  0
 19 20  1  0  0  0  0
 19 42  1  0  0  0  0
 20 21  2  0  0  0  0
 20 43  1  0  0  0  0
 21 22  1  0  0  0  0
 21 23  1  0  0  0  0
 23 24  1  0  0  0  0
 25 26  1  0  0  0  0
 25 44  1  0  0  0  0
 27 28  1  0  0  0  0
 27 45  1  0  0  0  0
 27 46  1  0  0  0  0
 28 47  1  0  0  0  0
 28 48  1  0  0  0  0
M  END
