
 OpenBabel03132512093D

 41 44  0  0  0  0  0  0  0  0999 V2000
    2.5490    0.5710    0.0100 C   0  0  0  0  0  0  0  0  0  0  0  0
    1.1040    0.2090   -0.0070 C   0  0  0  0  0  0  0  0  0  0  0  0
   -0.0230    0.9930   -0.0080 C   0  0  0  0  0  0  0  0  0  0  0  0
   -1.1600    0.1200    0.0130 C   0  0  0  0  0  0  0  0  0  0  0  0
   -2.6060    0.5470   -0.0040 C   0  0  0  0  0  0  0  0  0  0  0  0
   -0.6760   -1.1650    0.0080 C   0  0  0  0  0  0  0  0  0  0  0  0
   -1.5072   -2.4375    0.0211 C   0  0  0  0  0  0  0  0  0  0  0  0
   -1.3738   -3.3175    1.0288 C   0  0  0  0  0  0  0  0  0  0  0  0
   -0.4684   -3.0372    2.1837 C   0  0  0  0  0  0  0  0  0  0  0  0
    0.2743   -2.0682    2.3502 O   0  0  0  0  0  0  0  0  0  0  0  0
   -0.6150   -4.0599    3.0616 N   0  0  0  0  0  0  0  0  0  0  0  0
   -1.5277   -5.0089    2.5881 C   0  0  0  0  0  0  0  0  0  0  0  0
   -1.9063   -6.1709    3.2185 C   0  0  0  0  0  0  0  0  0  0  0  0
   -2.7966   -7.0025    2.5485 C   0  0  0  0  0  0  0  0  0  0  0  0
   -3.2419   -6.6566    1.2805 C   0  0  0  0  0  0  0  0  0  0  0  0
   -2.8626   -5.4658    0.6742 C   0  0  0  0  0  0  0  0  0  0  0  0
   -3.3859   -5.1098   -0.7078 C   0  0  0  0  0  0  0  0  0  0  0  0
   -2.5021   -4.9095   -1.7711 C   0  0  0  0  0  0  0  0  0  0  0  0
   -3.0038   -4.6775   -3.0367 C   0  0  0  0  0  0  0  0  0  0  0  0
   -4.3201   -4.6142   -3.2914 N   0  0  0  0  0  0  0  0  0  0  0  0
   -5.1606   -4.7853   -2.2663 C   0  0  0  0  0  0  0  0  0  0  0  0
   -4.7466   -5.0457   -0.9801 C   0  0  0  0  0  0  0  0  0  0  0  0
   -2.0015   -4.6029    1.3399 C   0  0  0  0  0  0  0  0  0  0  0  0
    0.6960   -1.0920   -0.0110 N   0  0  0  0  0  0  0  0  0  0  0  0
    2.7801    1.1570   -0.8550 H   0  0  0  0  0  0  0  0  0  0  0  0
    2.7646    1.1369    0.8922 H   0  0  0  0  0  0  0  0  0  0  0  0
    3.1402   -0.3208    0.0050 H   0  0  0  0  0  0  0  0  0  0  0  0
   -0.0482    2.0626   -0.0219 H   0  0  0  0  0  0  0  0  0  0  0  0
   -2.8080    1.1564    0.8520 H   0  0  0  0  0  0  0  0  0  0  0  0
   -2.8022    1.1067   -0.8946 H   0  0  0  0  0  0  0  0  0  0  0  0
   -3.2339   -0.3191    0.0185 H   0  0  0  0  0  0  0  0  0  0  0  0
   -2.1987   -2.6329   -0.7717 H   0  0  0  0  0  0  0  0  0  0  0  0
   -0.1233   -4.1287    3.9526 H   0  0  0  0  0  0  0  0  0  0  0  0
   -1.5302   -6.4252    4.1874 H   0  0  0  0  0  0  0  0  0  0  0  0
   -3.1373   -7.9063    3.0090 H   0  0  0  0  0  0  0  0  0  0  0  0
   -3.8940   -7.3239    0.7567 H   0  0  0  0  0  0  0  0  0  0  0  0
   -1.4452   -4.9358   -1.6063 H   0  0  0  0  0  0  0  0  0  0  0  0
   -2.3164   -4.5430   -3.8456 H   0  0  0  0  0  0  0  0  0  0  0  0
   -6.2114   -4.7161   -2.4560 H   0  0  0  0  0  0  0  0  0  0  0  0
   -5.4633   -5.1968   -0.2001 H   0  0  0  0  0  0  0  0  0  0  0  0
    1.3213   -1.8977   -0.0260 H   0  0  0  0  0  0  0  0  0  0  0  0
  1  2  1  0  0  0  0
  1 25  1  0  0  0  0
  1 26  1  0  0  0  0
  1 27  1  0  0  0  0
  2  3  2  0  0  0  0
  2 24  1  0  0  0  0
  3  4  1  0  0  0  0
  3 28  1  0  0  0  0
  4  5  1  0  0  0  0
  4  6  2  0  0  0  0
  5 29  1  0  0  0  0
  5 30  1  0  0  0  0
  5 31  1  0  0  0  0
  6  7  1  0  0  0  0
  6 24  1  0  0  0  0
  7  8  2  0  0  0  0
  7 32  1  0  0  0  0
  8  9  1  0  0  0  0
  8 23  1  0  0  0  0
  9 10  2  0  0  0  0
  9 11  1  0  0  0  0
 11 12  1  0  0  0  0
 11 33  1  0  0  0  0
 12 13  1  0  0  0  0
 12 23  2  0  0  0  0
 13 14  2  0  0  0  0
 13 34  1  0  0  0  0
 14 15  1  0  0  0  0
 14 35  1  0  0  0  0
 15 16  2  0  0  0  0
 15 36  1  0  0  0  0
 16 17  1  0  0  0  0
 16 23  1  0  0  0  0
 17 18  1  0  0  0  0
 17 22  2  0  0  0  0
 18 19  2  0  0  0  0
 18 37  1  0  0  0  0
 19 20  1  0  0  0  0
 19 38  1  0  0  0  0
 20 21  2  0  0  0  0
 21 22  1  0  0  0  0
 21 39  1  0  0  0  0
 22 40  1  0  0  0  0
 24 41  1  0  0  0  0
M  END
