
 OpenBabel03132512083D

 22 23  0  0  0  0  0  0  0  0999 V2000
    0.9476   -0.0726    0.0446 C   0  0  0  0  0  0  0  0  0  0  0  0
    0.4743   -0.5795   -1.1945 O   0  0  0  0  0  0  0  0  0  0  0  0
    0.8174    0.0751   -2.4070 C   0  0  0  0  0  0  0  0  0  0  0  0
   -0.1382    0.4493   -3.3094 C   0  0  0  0  0  0  0  0  0  0  0  0
    0.1916    1.1968   -4.4425 C   0  0  0  0  0  0  0  0  0  0  0  0
   -0.7432    1.6183   -5.4456 C   0  0  0  0  0  0  0  0  0  0  0  0
   -0.3379    2.3506   -6.4902 C   0  0  0  0  0  0  0  0  0  0  0  0
    1.0337    2.7331   -6.6428 C   0  0  0  0  0  0  0  0  0  0  0  0
    1.5071    3.4061   -7.5354 O   0  0  0  0  0  0  0  0  0  0  0  0
    1.9314    2.3078   -5.6964 O   0  0  0  0  0  0  0  0  0  0  0  0
    1.5184    1.5721   -4.6103 C   0  0  0  0  0  0  0  0  0  0  0  0
    2.4948    1.2292   -3.6878 C   0  0  0  0  0  0  0  0  0  0  0  0
    2.1418    0.4671   -2.5813 C   0  0  0  0  0  0  0  0  0  0  0  0
    3.1339    0.1205   -1.7112 O   0  0  0  0  0  0  0  0  0  0  0  0
    0.5910   -0.6902    0.8423 H   0  0  0  0  0  0  0  0  0  0  0  0
    0.5910    0.9270    0.1807 H   0  0  0  0  0  0  0  0  0  0  0  0
    2.0176   -0.0726    0.0446 H   0  0  0  0  0  0  0  0  0  0  0  0
   -1.1566    0.1648   -3.1453 H   0  0  0  0  0  0  0  0  0  0  0  0
   -1.7739    1.3448   -5.3581 H   0  0  0  0  0  0  0  0  0  0  0  0
   -1.0527    2.6563   -7.2254 H   0  0  0  0  0  0  0  0  0  0  0  0
    3.5069    1.5474   -3.8263 H   0  0  0  0  0  0  0  0  0  0  0  0
    2.9207   -0.4277   -0.9025 H   0  0  0  0  0  0  0  0  0  0  0  0
  1  2  1  0  0  0  0
  1 15  1  0  0  0  0
  1 16  1  0  0  0  0
  1 17  1  0  0  0  0
  2  3  1  0  0  0  0
  3  4  1  0  0  0  0
  3 13  2  0  0  0  0
  4  5  2  0  0  0  0
  4 18  1  0  0  0  0
  5  6  1  0  0  0  0
  5 11  1  0  0  0  0
  6  7  2  0  0  0  0
  6 19  1  0  0  0  0
  7  8  1  0  0  0  0
  7 20  1  0  0  0  0
  8  9  2  0  0  0  0
  8 10  1  0  0  0  0
 10 11  1  0  0  0  0
 11 12  2  0  0  0  0
 12 13  1  0  0  0  0
 12 21  1  0  0  0  0
 13 14  1  0  0  0  0
 14 22  1  0  0  0  0
M  END
