
 OpenBabel03132512093D

135143  0  0  0  0  0  0  0  0999 V2000
    0.9973    0.0717    0.0696 C   0  0  0  0  0  0  0  0  0  0  0  0
    0.4907    1.0029   -1.0197 C   0  0  0  0  0  0  0  0  0  0  0  0
   -1.0293    1.0029   -1.0197 C   0  0  0  0  0  0  0  0  0  0  0  0
   -1.5360    1.4807    0.3314 C   0  0  0  0  0  0  0  0  0  0  0  0
   -1.0293    2.8897    0.5931 C   0  0  0  0  0  0  0  0  0  0  0  0
   -1.5430    4.0979   -0.0680 N   0  0  0  0  0  0  0  0  0  0  0  0
    0.9973    0.5251   -2.3708 C   0  0  0  0  0  0  0  0  0  0  0  0
    0.1562    1.9377    0.4148 O   0  0  0  0  0  0  0  0  0  0  0  0
   -0.1327    0.6829    1.1446 C   0  0  0  0  0  0  0  0  0  0  0  0
    0.9321    0.0801    1.7471 C   0  0  0  0  0  0  0  0  0  0  0  0
    0.6971   -1.1652    2.5640 C   0  0  0  0  0  0  0  0  0  0  0  0
    0.5061   -0.7552    3.9806 C   0  0  0  0  0  0  0  0  0  0  0  0
   -0.8028   -0.5893    4.3478 C   0  0  0  0  0  0  0  0  0  0  0  0
   -1.0895    0.1088    5.6084 C   0  0  0  0  0  0  0  0  0  0  0  0
   -2.3500    0.2835    5.9996 C   0  0  0  0  0  0  0  0  0  0  0  0
   -3.4902   -0.2834    5.1695 C   0  0  0  0  0  0  0  0  0  0  0  0
   -4.2887   -1.2665    6.0099 C   0  0  0  0  0  0  0  0  0  0  0  0
   -4.8170   -0.5981    7.1459 O   0  0  0  0  0  0  0  0  0  0  0  0
   -3.7519   -0.0685    7.9214 C   0  0  0  0  0  0  0  0  0  0  0  0
   -2.7504   -1.2133    8.0916 O   0  0  0  0  0  0  0  0  0  0  0  0
   -2.3230   -1.6668    6.8054 C   0  0  0  0  0  0  0  0  0  0  0  0
   -3.5762   -2.0608    6.0407 C   0  0  0  0  0  0  0  0  0  0  0  0
   -3.2137   -2.5487    4.7573 O   0  0  0  0  0  0  0  0  0  0  0  0
   -1.6610   -0.6692    6.0258 C   0  0  0  0  0  0  0  0  0  0  0  0
   -1.2568   -1.2288    4.7849 O   0  0  0  0  0  0  0  0  0  0  0  0
   -2.6183    0.4976    5.7720 C   0  0  0  0  0  0  0  0  0  0  0  0
   -3.7343    0.0450    5.0197 O   0  0  0  0  0  0  0  0  0  0  0  0
   -4.4109   -0.9730    5.7425 C   0  0  0  0  0  0  0  0  0  0  0  0
   -3.1721   -1.8451    5.9592 O   0  0  0  0  0  0  0  0  0  0  0  0
   -2.1763   -1.0926    6.6555 C   0  0  0  0  0  0  0  0  0  0  0  0
   -1.9084    0.1529    5.8265 C   0  0  0  0  0  0  0  0  0  0  0  0
   -0.9020    0.9326    6.4554 O   0  0  0  0  0  0  0  0  0  0  0  0
   -2.5824   -0.6463    7.9506 C   0  0  0  0  0  0  0  0  0  0  0  0
   -1.5161    0.0641    8.5627 O   0  0  0  0  0  0  0  0  0  0  0  0
   -3.7975    0.2743    7.8145 C   0  0  0  0  0  0  0  0  0  0  0  0
   -3.4428    1.4255    7.0626 O   0  0  0  0  0  0  0  0  0  0  0  0
   -4.9227   -0.4811    7.1004 C   0  0  0  0  0  0  0  0  0  0  0  0
   -6.0339    0.3823    6.9097 O   0  0  0  0  0  0  0  0  0  0  0  0
   -3.0954    1.0575    7.1158 C   0  0  0  0  0  0  0  0  0  0  0  0
   -4.0347    2.0992    6.8947 O   0  0  0  0  0  0  0  0  0  0  0  0
   -5.1467    1.5888    6.1739 C   0  0  0  0  0  0  0  0  0  0  0  0
   -4.7755    1.0859    4.7769 O   0  0  0  0  0  0  0  0  0  0  0  0
   -3.9384   -0.0666    4.8930 C   0  0  0  0  0  0  0  0  0  0  0  0
   -2.7395    0.3448    5.7320 C   0  0  0  0  0  0  0  0  0  0  0  0
   -4.5527   -1.1682    5.5642 C   0  0  0  0  0  0  0  0  0  0  0  0
   -3.6497   -2.2635    5.6013 O   0  0  0  0  0  0  0  0  0  0  0  0
   -4.9149   -0.7564    6.9930 C   0  0  0  0  0  0  0  0  0  0  0  0
   -3.7336   -0.4300    7.7102 O   0  0  0  0  0  0  0  0  0  0  0  0
   -5.8420    0.4621    6.9451 C   0  0  0  0  0  0  0  0  0  0  0  0
   -6.1342    0.8944    8.2657 O   0  0  0  0  0  0  0  0  0  0  0  0
   -5.4289   -1.8334    5.1798 C   0  0  0  0  0  0  0  0  0  0  0  0
   -1.3630    1.2139    8.0658 C   0  0  0  0  0  0  0  0  0  0  0  0
   -2.6445    1.0439    7.2663 C   0  0  0  0  0  0  0  0  0  0  0  0
   -3.6591    0.2750    8.0968 C   0  0  0  0  0  0  0  0  0  0  0  0
   -3.2117    2.4210    6.9108 C   0  0  0  0  0  0  0  0  0  0  0  0
   -2.3040    3.0956    5.9992 C   0  0  0  0  0  0  0  0  0  0  0  0
   -2.8457    3.6944    4.9266 C   0  0  0  0  0  0  0  0  0  0  0  0
   -1.9603    4.4074    3.9366 C   0  0  0  0  0  0  0  0  0  0  0  0
   -1.7440    5.8640    4.3136 C   0  0  0  0  0  0  0  0  0  0  0  0
   -2.1011    3.7908    2.6295 C   0  0  0  0  0  0  0  0  0  0  0  0
   -0.9686    3.5173    1.9615 C   0  0  0  0  0  0  0  0  0  0  0  0
   -0.3178    2.4370    2.8099 C   0  0  0  0  0  0  0  0  0  0  0  0
    0.6407   -0.9201   -0.1146 H   0  0  0  0  0  0  0  0  0  0  0  0
    0.6407    0.4081    1.0207 H   0  0  0  0  0  0  0  0  0  0  0  0
    2.0673    0.0717    0.0696 H   0  0  0  0  0  0  0  0  0  0  0  0
    0.8473    1.9947   -0.8355 H   0  0  0  0  0  0  0  0  0  0  0  0
   -1.3860    1.6584   -1.7865 H   0  0  0  0  0  0  0  0  0  0  0  0
   -1.3860    0.0110   -1.2040 H   0  0  0  0  0  0  0  0  0  0  0  0
   -2.6060    1.4807    0.3314 H   0  0  0  0  0  0  0  0  0  0  0  0
   -1.1793    0.8252    1.0982 H   0  0  0  0  0  0  0  0  0  0  0  0
   -1.0405    4.9150    0.2787 H   0  0  0  0  0  0  0  0  0  0  0  0
    0.6407    1.1806   -3.1376 H   0  0  0  0  0  0  0  0  0  0  0  0
    2.0673    0.5251   -2.3708 H   0  0  0  0  0  0  0  0  0  0  0  0
   -0.5209   -0.2794    0.8833 H   0  0  0  0  0  0  0  0  0  0  0  0
    1.5342   -0.2574    0.9295 H   0  0  0  0  0  0  0  0  0  0  0  0
    1.3759    0.8039    2.3982 H   0  0  0  0  0  0  0  0  0  0  0  0
    0.8956   -2.1675    2.2466 H   0  0  0  0  0  0  0  0  0  0  0  0
    1.5322   -1.0344    4.0989 H   0  0  0  0  0  0  0  0  0  0  0  0
   -1.2096    0.0509    3.5931 H   0  0  0  0  0  0  0  0  0  0  0  0
   -1.2377   -1.5643    4.4196 H   0  0  0  0  0  0  0  0  0  0  0  0
   -0.2859    0.4764    6.2116 H   0  0  0  0  0  0  0  0  0  0  0  0
   -4.1288    0.5133    4.8496 H   0  0  0  0  0  0  0  0  0  0  0  0
   -3.0920   -0.7870    4.3135 H   0  0  0  0  0  0  0  0  0  0  0  0
   -3.6500   -2.0631    6.3299 H   0  0  0  0  0  0  0  0  0  0  0  0
   -4.0791    0.3114    8.8666 H   0  0  0  0  0  0  0  0  0  0  0  0
   -1.6494   -2.4863    6.9448 H   0  0  0  0  0  0  0  0  0  0  0  0
   -4.0969   -2.8251    6.5788 H   0  0  0  0  0  0  0  0  0  0  0  0
   -4.2107   -1.2062    5.9312 H   0  0  0  0  0  0  0  0  0  0  0  0
   -2.7270   -1.8345    4.2544 H   0  0  0  0  0  0  0  0  0  0  0  0
   -0.8004   -0.3161    6.5547 H   0  0  0  0  0  0  0  0  0  0  0  0
   -2.0609   -1.5589    4.2904 H   0  0  0  0  0  0  0  0  0  0  0  0
   -2.1112    1.2643    5.2244 H   0  0  0  0  0  0  0  0  0  0  0  0
   -5.2735   -1.3971    5.2724 H   0  0  0  0  0  0  0  0  0  0  0  0
   -1.3083   -1.7079    6.7690 H   0  0  0  0  0  0  0  0  0  0  0  0
   -1.5795   -0.1330    4.8493 H   0  0  0  0  0  0  0  0  0  0  0  0
   -2.8071    0.7281    5.7463 H   0  0  0  0  0  0  0  0  0  0  0  0
   -1.2093    1.1999    7.3687 H   0  0  0  0  0  0  0  0  0  0  0  0
   -2.8408   -1.4911    8.5543 H   0  0  0  0  0  0  0  0  0  0  0  0
   -1.2745    0.8537    7.9987 H   0  0  0  0  0  0  0  0  0  0  0  0
   -4.1290    0.5758    8.7861 H   0  0  0  0  0  0  0  0  0  0  0  0
   -3.1324    1.1473    6.1536 H   0  0  0  0  0  0  0  0  0  0  0  0
   -5.2257   -1.3181    7.6940 H   0  0  0  0  0  0  0  0  0  0  0  0
   -5.7554    1.1664    6.3552 H   0  0  0  0  0  0  0  0  0  0  0  0
   -2.2599    1.4470    7.6590 H   0  0  0  0  0  0  0  0  0  0  0  0
   -5.8170    2.4149    6.0589 H   0  0  0  0  0  0  0  0  0  0  0  0
   -3.6643   -0.3835    3.9084 H   0  0  0  0  0  0  0  0  0  0  0  0
   -2.0706   -0.4847    5.8291 H   0  0  0  0  0  0  0  0  0  0  0  0
   -2.2328    1.1578    5.2554 H   0  0  0  0  0  0  0  0  0  0  0  0
   -3.0713    0.6509    6.7021 H   0  0  0  0  0  0  0  0  0  0  0  0
   -5.4401   -1.4555    5.0398 H   0  0  0  0  0  0  0  0  0  0  0  0
   -2.8203   -1.9952    6.0913 H   0  0  0  0  0  0  0  0  0  0  0  0
   -5.4131   -1.5664    7.4837 H   0  0  0  0  0  0  0  0  0  0  0  0
   -3.2653    0.3268    7.2542 H   0  0  0  0  0  0  0  0  0  0  0  0
   -6.7542    0.1995    6.4513 H   0  0  0  0  0  0  0  0  0  0  0  0
   -5.2843    1.1411    8.7314 H   0  0  0  0  0  0  0  0  0  0  0  0
   -5.9910   -2.5254    5.7714 H   0  0  0  0  0  0  0  0  0  0  0  0
   -6.0675   -1.0367    4.8599 H   0  0  0  0  0  0  0  0  0  0  0  0
   -1.5724    1.7558    8.9643 H   0  0  0  0  0  0  0  0  0  0  0  0
   -0.9671    0.2513    8.3139 H   0  0  0  0  0  0  0  0  0  0  0  0
   -3.2618   -0.6872    8.3440 H   0  0  0  0  0  0  0  0  0  0  0  0
   -3.8678    0.8165    8.9958 H   0  0  0  0  0  0  0  0  0  0  0  0
   -4.5619    0.1546    7.5352 H   0  0  0  0  0  0  0  0  0  0  0  0
   -4.0403    2.9201    7.3682 H   0  0  0  0  0  0  0  0  0  0  0  0
   -1.8766    3.8911    6.5732 H   0  0  0  0  0  0  0  0  0  0  0  0
   -1.6052    2.3678    5.6430 H   0  0  0  0  0  0  0  0  0  0  0  0
   -3.2405    2.8767    4.3606 H   0  0  0  0  0  0  0  0  0  0  0  0
   -3.5426    4.4177    5.2953 H   0  0  0  0  0  0  0  0  0  0  0  0
   -0.8321    6.2138    3.8767 H   0  0  0  0  0  0  0  0  0  0  0  0
   -2.5615    6.4514    3.9510 H   0  0  0  0  0  0  0  0  0  0  0  0
   -1.6862    5.9520    5.3784 H   0  0  0  0  0  0  0  0  0  0  0  0
   -3.0973    4.1808    2.6098 H   0  0  0  0  0  0  0  0  0  0  0  0
   -0.4438    4.4434    1.8527 H   0  0  0  0  0  0  0  0  0  0  0  0
    0.6310    2.1765    2.3894 H   0  0  0  0  0  0  0  0  0  0  0  0
   -0.1784    2.8016    3.8062 H   0  0  0  0  0  0  0  0  0  0  0  0
   -0.9479    1.5725    2.8315 H   0  0  0  0  0  0  0  0  0  0  0  0
  1  2  1  0  0  0  0
  1 63  1  0  0  0  0
  1 64  1  0  0  0  0
  1 65  1  0  0  0  0
  2  3  1  0  0  0  0
  2  7  1  0  0  0  0
  2 66  1  0  0  0  0
  3  4  1  0  0  0  0
  3 67  1  0  0  0  0
  3 68  1  0  0  0  0
  4  5  1  0  0  0  0
  4 69  1  0  0  0  0
  4 70  1  0  0  0  0
  5  6  1  0  0  0  0
  5  8  1  0  0  0  0
  5 61  1  0  0  0  0
  6  7  1  0  0  0  0
  6 71  1  0  0  0  0
  7 72  1  0  0  0  0
  7 73  1  0  0  0  0
  8  9  1  0  0  0  0
  9 10  1  0  0  0  0
  9 60  1  0  0  0  0
  9 74  1  0  0  0  0
 10 11  1  0  0  0  0
 10 75  1  0  0  0  0
 10 76  1  0  0  0  0
 11 12  1  0  0  0  0
 11 58  1  0  0  0  0
 11 77  1  0  0  0  0
 12 13  1  0  0  0  0
 12 55  1  0  0  0  0
 12 78  1  0  0  0  0
 13 14  1  0  0  0  0
 13 79  1  0  0  0  0
 13 80  1  0  0  0  0
 14 15  2  0  0  0  0
 14 81  1  0  0  0  0
 15 16  1  0  0  0  0
 15 53  1  0  0  0  0
 16 17  1  0  0  0  0
 16 82  1  0  0  0  0
 16 83  1  0  0  0  0
 17 18  1  0  0  0  0
 17 51  1  0  0  0  0
 17 84  1  0  0  0  0
 18 19  1  0  0  0  0
 19 20  1  0  0  0  0
 19 39  1  0  0  0  0
 19 85  1  0  0  0  0
 20 21  1  0  0  0  0
 21 22  1  0  0  0  0
 21 24  1  0  0  0  0
 21 86  1  0  0  0  0
 22 23  1  0  0  0  0
 22 87  1  0  0  0  0
 22 88  1  0  0  0  0
 23 89  1  0  0  0  0
 24 25  1  0  0  0  0
 24 26  1  0  0  0  0
 24 90  1  0  0  0  0
 25 91  1  0  0  0  0
 26 27  1  0  0  0  0
 26 39  1  0  0  0  0
 26 92  1  0  0  0  0
 27 28  1  0  0  0  0
 28 29  1  0  0  0  0
 28 37  1  0  0  0  0
 28 93  1  0  0  0  0
 29 30  1  0  0  0  0
 30 31  1  0  0  0  0
 30 33  1  0  0  0  0
 30 94  1  0  0  0  0
 31 32  1  0  0  0  0
 31 95  1  0  0  0  0
 31 96  1  0  0  0  0
 32 97  1  0  0  0  0
 33 34  1  0  0  0  0
 33 35  1  0  0  0  0
 33 98  1  0  0  0  0
 34 99  1  0  0  0  0
 35 36  1  0  0  0  0
 35 37  1  0  0  0  0
 35100  1  0  0  0  0
 36101  1  0  0  0  0
 37 38  1  0  0  0  0
 37102  1  0  0  0  0
 38103  1  0  0  0  0
 39 40  1  0  0  0  0
 39104  1  0  0  0  0
 40 41  1  0  0  0  0
 41 42  1  0  0  0  0
 41 49  1  0  0  0  0
 41105  1  0  0  0  0
 42 43  1  0  0  0  0
 43 44  1  0  0  0  0
 43 45  1  0  0  0  0
 43106  1  0  0  0  0
 44107  1  0  0  0  0
 44108  1  0  0  0  0
 44109  1  0  0  0  0
 45 46  1  0  0  0  0
 45 47  1  0  0  0  0
 45110  1  0  0  0  0
 46111  1  0  0  0  0
 47 48  1  0  0  0  0
 47 49  1  0  0  0  0
 47112  1  0  0  0  0
 48113  1  0  0  0  0
 49 50  1  0  0  0  0
 49114  1  0  0  0  0
 50115  1  0  0  0  0
 51 52  1  0  0  0  0
 51116  1  0  0  0  0
 51117  1  0  0  0  0
 52 53  1  0  0  0  0
 52118  1  0  0  0  0
 52119  1  0  0  0  0
 53 54  1  0  0  0  0
 53 55  1  0  0  0  0
 54120  1  0  0  0  0
 54121  1  0  0  0  0
 54122  1  0  0  0  0
 55 56  1  0  0  0  0
 55123  1  0  0  0  0
 56 57  1  0  0  0  0
 56124  1  0  0  0  0
 56125  1  0  0  0  0
 57 58  1  0  0  0  0
 57126  1  0  0  0  0
 57127  1  0  0  0  0
 58 59  1  0  0  0  0
 58 60  1  0  0  0  0
 59128  1  0  0  0  0
 59129  1  0  0  0  0
 59130  1  0  0  0  0
 60 61  1  0  0  0  0
 60131  1  0  0  0  0
 61 62  1  0  0  0  0
 61132  1  0  0  0  0
 62133  1  0  0  0  0
 62134  1  0  0  0  0
 62135  1  0  0  0  0
M  END
