
 OpenBabel03132512093D

 69 73  0  0  0  0  0  0  0  0999 V2000
    0.9625   -0.0839    0.0394 O   0  0  0  0  0  0  0  0  0  0  0  0
    2.2334   -0.0839    0.0394 C   0  0  0  0  0  0  0  0  0  0  0  0
    2.9934   -0.8205   -1.0516 C   0  0  0  0  0  0  0  0  0  0  0  0
    4.3538   -0.8205   -1.0516 C   0  0  0  0  0  0  0  0  0  0  0  0
    5.1138   -1.5571   -2.1425 C   0  0  0  0  0  0  0  0  0  0  0  0
    4.6811   -1.3891   -3.4396 C   0  0  0  0  0  0  0  0  0  0  0  0
    5.4011   -1.9208   -4.5146 C   0  0  0  0  0  0  0  0  0  0  0  0
    6.5919   -2.6173   -4.2221 C   0  0  0  0  0  0  0  0  0  0  0  0
    7.3647   -3.1447   -5.1986 O   0  0  0  0  0  0  0  0  0  0  0  0
    6.9975   -2.8038   -2.9221 C   0  0  0  0  0  0  0  0  0  0  0  0
    6.2624   -2.2651   -1.8838 C   0  0  0  0  0  0  0  0  0  0  0  0
    2.9434    0.6042    1.0586 O   0  0  0  0  0  0  0  0  0  0  0  0
    4.3634    0.6042    1.0586 C   0  0  0  0  0  0  0  0  0  0  0  0
    4.8700   -0.8253    1.1592 C   0  0  0  0  0  0  0  0  0  0  0  0
    5.1257   -2.2051    0.5484 O   0  0  0  0  0  0  0  0  0  0  0  0
    4.7059   -2.2059   -0.8178 C   0  0  0  0  0  0  0  0  0  0  0  0
    3.3385   -1.8230   -0.8264 O   0  0  0  0  0  0  0  0  0  0  0  0
    2.9548   -0.5491   -0.3302 C   0  0  0  0  0  0  0  0  0  0  0  0
    1.5680   -0.1608   -0.3390 C   0  0  0  0  0  0  0  0  0  0  0  0
    0.5151   -1.1145   -0.8795 C   0  0  0  0  0  0  0  0  0  0  0  0
    0.5040   -2.4514   -0.5472 C   0  0  0  0  0  0  0  0  0  0  0  0
   -0.5030   -3.3023   -1.0147 C   0  0  0  0  0  0  0  0  0  0  0  0
   -1.5127   -2.7377   -1.8212 C   0  0  0  0  0  0  0  0  0  0  0  0
   -2.5384   -3.4788   -2.2984 O   0  0  0  0  0  0  0  0  0  0  0  0
   -1.4744   -1.4088   -2.1701 C   0  0  0  0  0  0  0  0  0  0  0  0
   -0.4651   -0.5963   -1.6908 C   0  0  0  0  0  0  0  0  0  0  0  0
    1.2043    1.0463    0.1312 O   0  0  0  0  0  0  0  0  0  0  0  0
   -0.1630    1.4291    0.1226 C   0  0  0  0  0  0  0  0  0  0  0  0
   -1.1351    0.5207    0.5543 C   0  0  0  0  0  0  0  0  0  0  0  0
   -2.4786    0.9491    0.5462 C   0  0  0  0  0  0  0  0  0  0  0  0
   -3.4826    0.1473    0.9683 O   0  0  0  0  0  0  0  0  0  0  0  0
   -2.8166    2.1985    0.0837 C   0  0  0  0  0  0  0  0  0  0  0  0
   -1.8310    3.0711   -0.3356 C   0  0  0  0  0  0  0  0  0  0  0  0
   -2.1834    4.3679   -0.7944 O   0  0  0  0  0  0  0  0  0  0  0  0
   -0.5115    2.6895   -0.3108 C   0  0  0  0  0  0  0  0  0  0  0  0
    3.9524    0.3546    0.1819 C   0  0  0  0  0  0  0  0  0  0  0  0
    5.1762    0.0119    0.1897 O   0  0  0  0  0  0  0  0  0  0  0  0
    5.4016   -1.2688   -1.6420 C   0  0  0  0  0  0  0  0  0  0  0  0
    4.9288   -1.3699   -2.9771 O   0  0  0  0  0  0  0  0  0  0  0  0
    5.1571    0.1489   -1.1197 C   0  0  0  0  0  0  0  0  0  0  0  0
    3.7736    0.4572   -1.2042 O   0  0  0  0  0  0  0  0  0  0  0  0
    5.6157    0.2329    0.3395 C   0  0  0  0  0  0  0  0  0  0  0  0
    5.3351    1.5253    0.8565 O   0  0  0  0  0  0  0  0  0  0  0  0
    2.4584   -1.3391   -1.8196 H   0  0  0  0  0  0  0  0  0  0  0  0
    4.8888   -0.3020   -0.2836 H   0  0  0  0  0  0  0  0  0  0  0  0
    3.7803   -0.8432   -3.6277 H   0  0  0  0  0  0  0  0  0  0  0  0
    5.0607   -1.8033   -5.5221 H   0  0  0  0  0  0  0  0  0  0  0  0
    7.1050   -3.0315   -6.1576 H   0  0  0  0  0  0  0  0  0  0  0  0
    7.8833   -3.3667   -2.7140 H   0  0  0  0  0  0  0  0  0  0  0  0
    6.5891   -2.3998   -0.8739 H   0  0  0  0  0  0  0  0  0  0  0  0
    4.7200    1.0460    0.1516 H   0  0  0  0  0  0  0  0  0  0  0  0
    4.7200    1.1688    1.8946 H   0  0  0  0  0  0  0  0  0  0  0  0
    4.6020   -1.4357    1.9962 H   0  0  0  0  0  0  0  0  0  0  0  0
    4.8630   -3.1861   -1.2170 H   0  0  0  0  0  0  0  0  0  0  0  0
    1.2778   -2.8451    0.0782 H   0  0  0  0  0  0  0  0  0  0  0  0
   -0.5071   -4.3438   -0.7693 H   0  0  0  0  0  0  0  0  0  0  0  0
   -2.6032   -4.4497   -2.0681 H   0  0  0  0  0  0  0  0  0  0  0  0
   -2.2270   -1.0031   -2.8135 H   0  0  0  0  0  0  0  0  0  0  0  0
   -0.4466    0.4410   -1.9526 H   0  0  0  0  0  0  0  0  0  0  0  0
   -0.8689   -0.4636    0.8789 H   0  0  0  0  0  0  0  0  0  0  0  0
   -3.2794   -0.7694    1.3122 H   0  0  0  0  0  0  0  0  0  0  0  0
   -3.8439    2.4957    0.0484 H   0  0  0  0  0  0  0  0  0  0  0  0
   -1.4718    5.0013   -1.0984 H   0  0  0  0  0  0  0  0  0  0  0  0
    6.4499   -1.4820   -1.6180 H   0  0  0  0  0  0  0  0  0  0  0  0
    3.9491   -1.1707   -2.9998 H   0  0  0  0  0  0  0  0  0  0  0  0
    5.7112    0.8485   -1.7101 H   0  0  0  0  0  0  0  0  0  0  0  0
    3.2525   -0.1949   -0.6535 H   0  0  0  0  0  0  0  0  0  0  0  0
    6.6690    0.0531    0.3953 H   0  0  0  0  0  0  0  0  0  0  0  0
    4.3513    1.6979    0.8064 H   0  0  0  0  0  0  0  0  0  0  0  0
  1  2  2  0  0  0  0
  2  3  1  0  0  0  0
  2 12  1  0  0  0  0
  3  4  2  0  0  0  0
  3 44  1  0  0  0  0
  4  5  1  0  0  0  0
  4 45  1  0  0  0  0
  5  6  1  0  0  0  0
  5 11  2  0  0  0  0
  6  7  2  0  0  0  0
  6 46  1  0  0  0  0
  7  8  1  0  0  0  0
  7 47  1  0  0  0  0
  8  9  1  0  0  0  0
  8 10  2  0  0  0  0
  9 48  1  0  0  0  0
 10 11  1  0  0  0  0
 10 49  1  0  0  0  0
 11 50  1  0  0  0  0
 12 13  1  0  0  0  0
 13 14  1  0  0  0  0
 13 51  1  0  0  0  0
 13 52  1  0  0  0  0
 14 15  1  0  0  0  0
 14 42  1  0  0  0  0
 14 53  1  0  0  0  0
 15 16  1  0  0  0  0
 16 17  1  0  0  0  0
 16 38  1  0  0  0  0
 16 54  1  0  0  0  0
 17 18  1  0  0  0  0
 18 19  2  0  0  0  0
 18 36  1  0  0  0  0
 19 20  1  0  0  0  0
 19 27  1  0  0  0  0
 20 21  1  0  0  0  0
 20 26  2  0  0  0  0
 21 22  2  0  0  0  0
 21 55  1  0  0  0  0
 22 23  1  0  0  0  0
 22 56  1  0  0  0  0
 23 24  1  0  0  0  0
 23 25  2  0  0  0  0
 24 57  1  0  0  0  0
 25 26  1  0  0  0  0
 25 58  1  0  0  0  0
 26 59  1  0  0  0  0
 27 28  1  0  0  0  0
 28 29  1  0  0  0  0
 28 35  2  0  0  0  0
 29 30  2  0  0  0  0
 29 60  1  0  0  0  0
 30 31  1  0  0  0  0
 30 32  1  0  0  0  0
 31 61  1  0  0  0  0
 32 33  2  0  0  0  0
 32 62  1  0  0  0  0
 33 34  1  0  0  0  0
 33 35  1  0  0  0  0
 34 63  1  0  0  0  0
 35 36  1  0  0  0  0
 36 37  2  0  0  0  0
 38 39  1  0  0  0  0
 38 40  1  0  0  0  0
 38 64  1  0  0  0  0
 39 65  1  0  0  0  0
 40 41  1  0  0  0  0
 40 42  1  0  0  0  0
 40 66  1  0  0  0  0
 41 67  1  0  0  0  0
 42 43  1  0  0  0  0
 42 68  1  0  0  0  0
 43 69  1  0  0  0  0
M  END
