
 OpenBabel03132514253D

116123  0  0  0  0  0  0  0  0999 V2000
    1.0936    0.0255    0.0245 C   0  0  0  0  0  0  0  0  0  0  0  0
    0.5869   -1.2646   -0.5996 C   0  0  0  0  0  0  0  0  0  0  0  0
    1.3777   -2.3701   -1.3029 C   0  0  0  0  0  0  0  0  0  0  0  0
    2.2543   -2.9984   -0.3651 C   0  0  0  0  0  0  0  0  0  0  0  0
    1.5841   -3.6223    0.7317 C   0  0  0  0  0  0  0  0  0  0  0  0
    0.8016   -2.5674    1.5174 O   0  0  0  0  0  0  0  0  0  0  0  0
   -0.1861   -1.8703    0.5765 C   0  0  0  0  0  0  0  0  0  0  0  0
    0.6879   -4.6080    0.2403 O   0  0  0  0  0  0  0  0  0  0  0  0
    0.0219   -5.2279    1.3305 C   0  0  0  0  0  0  0  0  0  0  0  0
    1.0466   -5.9030    2.2454 C   0  0  0  0  0  0  0  0  0  0  0  0
    2.2947   -6.2620    1.4357 C   0  0  0  0  0  0  0  0  0  0  0  0
    3.4918   -5.4711    1.9659 C   0  0  0  0  0  0  0  0  0  0  0  0
    4.4167   -5.1050    0.8041 C   0  0  0  0  0  0  0  0  0  0  0  0
    5.2439   -3.9029    1.1810 C   0  0  0  0  0  0  0  0  0  0  0  0
    4.7714   -2.6663    0.9563 C   0  0  0  0  0  0  0  0  0  0  0  0
    5.6174   -1.5547    1.3517 C   0  0  0  0  0  0  0  0  0  0  0  0
    4.7400   -0.3658    1.7502 C   0  0  0  0  0  0  0  0  0  0  0  0
    5.3221    0.8364    1.2683 O   0  0  0  0  0  0  0  0  0  0  0  0
    5.4258    0.7781   -0.1467 C   0  0  0  0  0  0  0  0  0  0  0  0
    6.2980   -0.4139   -0.5477 O   0  0  0  0  0  0  0  0  0  0  0  0
    5.6779   -1.6254   -0.1115 C   0  0  0  0  0  0  0  0  0  0  0  0
    5.4723   -1.4972    1.3891 C   0  0  0  0  0  0  0  0  0  0  0  0
    4.8816   -2.6877    1.8893 O   0  0  0  0  0  0  0  0  0  0  0  0
    4.3909   -1.8610   -0.6853 C   0  0  0  0  0  0  0  0  0  0  0  0
    3.8784   -3.0964   -0.2081 O   0  0  0  0  0  0  0  0  0  0  0  0
    3.4414   -0.7276   -0.2898 C   0  0  0  0  0  0  0  0  0  0  0  0
    3.2788   -0.7109    1.1207 O   0  0  0  0  0  0  0  0  0  0  0  0
    4.0306    0.6072   -0.7566 C   0  0  0  0  0  0  0  0  0  0  0  0
    3.1911    1.6738   -0.3392 O   0  0  0  0  0  0  0  0  0  0  0  0
    3.0911    1.6710    1.0773 C   0  0  0  0  0  0  0  0  0  0  0  0
    2.5032    0.3378    1.5455 O   0  0  0  0  0  0  0  0  0  0  0  0
    3.3817   -0.7265    1.1739 C   0  0  0  0  0  0  0  0  0  0  0  0
    3.5670   -0.6365   -0.3321 C   0  0  0  0  0  0  0  0  0  0  0  0
    4.4128   -1.6903   -0.7687 O   0  0  0  0  0  0  0  0  0  0  0  0
    4.6837   -0.6376    1.7554 C   0  0  0  0  0  0  0  0  0  0  0  0
    5.4630   -1.7513    1.3445 O   0  0  0  0  0  0  0  0  0  0  0  0
    5.3599    0.6561    1.2957 C   0  0  0  0  0  0  0  0  0  0  0  0
    5.5274    0.6328   -0.1143 O   0  0  0  0  0  0  0  0  0  0  0  0
    4.4838    1.8489    1.6910 C   0  0  0  0  0  0  0  0  0  0  0  0
    5.0679    3.0519    1.2133 O   0  0  0  0  0  0  0  0  0  0  0  0
    3.4176   -0.5291    1.1748 C   0  0  0  0  0  0  0  0  0  0  0  0
    2.6874    0.5834    0.9979 C   0  0  0  0  0  0  0  0  0  0  0  0
    1.3098    0.4918    0.3922 C   0  0  0  0  0  0  0  0  0  0  0  0
    0.4729    1.2071   -0.6558 C   0  0  0  0  0  0  0  0  0  0  0  0
    0.2965    0.1348    1.4816 C   0  0  0  0  0  0  0  0  0  0  0  0
   -0.8398   -0.6877    0.8702 C   0  0  0  0  0  0  0  0  0  0  0  0
   -1.2896   -1.7575    1.8668 C   0  0  0  0  0  0  0  0  0  0  0  0
   -1.3132   -3.1215    1.1751 C   0  0  0  0  0  0  0  0  0  0  0  0
   -2.3446   -2.7002    0.1411 C   0  0  0  0  0  0  0  0  0  0  0  0
   -0.7659   -4.1871    2.1277 C   0  0  0  0  0  0  0  0  0  0  0  0
    2.6075   -4.2784    1.6443 C   0  0  0  0  0  0  0  0  0  0  0  0
    3.3845   -5.3259    0.8637 C   0  0  0  0  0  0  0  0  0  0  0  0
    0.7369    0.0991    1.0306 H   0  0  0  0  0  0  0  0  0  0  0  0
    0.7369    0.8600   -0.5424 H   0  0  0  0  0  0  0  0  0  0  0  0
    2.1636    0.0255    0.0245 H   0  0  0  0  0  0  0  0  0  0  0  0
    0.1475   -0.9225   -1.5133 H   0  0  0  0  0  0  0  0  0  0  0  0
    0.6998   -3.0966   -1.6999 H   0  0  0  0  0  0  0  0  0  0  0  0
    1.9524   -1.9461   -2.0997 H   0  0  0  0  0  0  0  0  0  0  0  0
    2.8694   -2.2264    0.0477 H   0  0  0  0  0  0  0  0  0  0  0  0
    2.8200   -3.7452   -0.8820 H   0  0  0  0  0  0  0  0  0  0  0  0
   -0.7041   -1.0973    1.1048 H   0  0  0  0  0  0  0  0  0  0  0  0
   -0.8960   -2.5823    0.2104 H   0  0  0  0  0  0  0  0  0  0  0  0
   -0.6557   -5.9628    0.9488 H   0  0  0  0  0  0  0  0  0  0  0  0
    1.3146   -5.2336    3.0359 H   0  0  0  0  0  0  0  0  0  0  0  0
    0.6224   -6.7933    2.6604 H   0  0  0  0  0  0  0  0  0  0  0  0
    2.7597   -7.0943    0.9499 H   0  0  0  0  0  0  0  0  0  0  0  0
    3.9772   -5.8964    2.8193 H   0  0  0  0  0  0  0  0  0  0  0  0
    3.8299   -4.8774   -0.0612 H   0  0  0  0  0  0  0  0  0  0  0  0
    5.0633   -5.9299    0.5892 H   0  0  0  0  0  0  0  0  0  0  0  0
    6.0861   -3.9679    0.5243 H   0  0  0  0  0  0  0  0  0  0  0  0
    5.4332   -3.9752    2.2317 H   0  0  0  0  0  0  0  0  0  0  0  0
    4.4340   -3.5281    0.4193 H   0  0  0  0  0  0  0  0  0  0  0  0
    6.2475   -1.2758    0.5332 H   0  0  0  0  0  0  0  0  0  0  0  0
    6.2238   -1.8458    2.1839 H   0  0  0  0  0  0  0  0  0  0  0  0
    4.6623   -0.3208    2.8165 H   0  0  0  0  0  0  0  0  0  0  0  0
    5.8672    1.6843   -0.5057 H   0  0  0  0  0  0  0  0  0  0  0  0
    6.3170   -2.4429   -0.3725 H   0  0  0  0  0  0  0  0  0  0  0  0
    6.4169   -1.3399    1.8664 H   0  0  0  0  0  0  0  0  0  0  0  0
    4.8280   -0.6671    1.5911 H   0  0  0  0  0  0  0  0  0  0  0  0
    3.9988   -2.8347    1.4432 H   0  0  0  0  0  0  0  0  0  0  0  0
    4.4769   -1.8988   -1.7512 H   0  0  0  0  0  0  0  0  0  0  0  0
    3.7979   -3.0613    0.7880 H   0  0  0  0  0  0  0  0  0  0  0  0
    2.4891   -0.8802   -0.7531 H   0  0  0  0  0  0  0  0  0  0  0  0
    4.1673   -0.5684    1.5570 H   0  0  0  0  0  0  0  0  0  0  0  0
    4.1026    0.6137   -1.8241 H   0  0  0  0  0  0  0  0  0  0  0  0
    2.4562    2.4743    1.3878 H   0  0  0  0  0  0  0  0  0  0  0  0
    2.9388   -1.6507    1.4811 H   0  0  0  0  0  0  0  0  0  0  0  0
    2.6154   -0.7199   -0.8141 H   0  0  0  0  0  0  0  0  0  0  0  0
    4.0117    0.3043   -0.5812 H   0  0  0  0  0  0  0  0  0  0  0  0
    5.3021   -1.6123   -0.3182 H   0  0  0  0  0  0  0  0  0  0  0  0
    4.5988   -0.6362    2.8220 H   0  0  0  0  0  0  0  0  0  0  0  0
    5.5426   -1.7528    0.3477 H   0  0  0  0  0  0  0  0  0  0  0  0
    6.3182    0.7451    1.7634 H   0  0  0  0  0  0  0  0  0  0  0  0
    4.6334    0.5497   -0.5547 H   0  0  0  0  0  0  0  0  0  0  0  0
    4.4026    1.8966    2.7568 H   0  0  0  0  0  0  0  0  0  0  0  0
    5.1459    3.0120    0.2172 H   0  0  0  0  0  0  0  0  0  0  0  0
    2.8728   -1.1076    1.8913 H   0  0  0  0  0  0  0  0  0  0  0  0
    3.5373   -0.9920    0.2176 H   0  0  0  0  0  0  0  0  0  0  0  0
    3.2433    1.1286    0.2640 H   0  0  0  0  0  0  0  0  0  0  0  0
    2.5718    1.0337    1.9616 H   0  0  0  0  0  0  0  0  0  0  0  0
    1.1143    1.7708   -1.3006 H   0  0  0  0  0  0  0  0  0  0  0  0
   -0.0685    0.4866   -1.2326 H   0  0  0  0  0  0  0  0  0  0  0  0
   -0.2162    1.8674   -0.1721 H   0  0  0  0  0  0  0  0  0  0  0  0
    0.0230    0.9092    2.1674 H   0  0  0  0  0  0  0  0  0  0  0  0
   -0.4960   -1.1586   -0.0270 H   0  0  0  0  0  0  0  0  0  0  0  0
   -1.6634   -0.0437    0.6425 H   0  0  0  0  0  0  0  0  0  0  0  0
   -2.2702   -1.5220    2.2243 H   0  0  0  0  0  0  0  0  0  0  0  0
   -0.6071   -1.7871    2.6904 H   0  0  0  0  0  0  0  0  0  0  0  0
   -1.8457   -2.3283   -0.7293 H   0  0  0  0  0  0  0  0  0  0  0  0
   -2.9469   -3.5433   -0.1259 H   0  0  0  0  0  0  0  0  0  0  0  0
   -2.9673   -1.9325    0.5508 H   0  0  0  0  0  0  0  0  0  0  0  0
   -0.1214   -3.7257    2.8465 H   0  0  0  0  0  0  0  0  0  0  0  0
    3.2829   -3.5358    2.0148 H   0  0  0  0  0  0  0  0  0  0  0  0
    3.8866   -4.8589    0.0423 H   0  0  0  0  0  0  0  0  0  0  0  0
    4.1049   -5.7877    1.5061 H   0  0  0  0  0  0  0  0  0  0  0  0
    2.7090   -6.0684    0.4932 H   0  0  0  0  0  0  0  0  0  0  0  0
  1  2  1  0  0  0  0
  1 53  1  0  0  0  0
  1 54  1  0  0  0  0
  1 55  1  0  0  0  0
  2  3  1  0  0  0  0
  2  7  1  0  0  0  0
  2 56  1  0  0  0  0
  3  4  1  0  0  0  0
  3 57  1  0  0  0  0
  3 58  1  0  0  0  0
  4  5  1  0  0  0  0
  4 59  1  0  0  0  0
  4 60  1  0  0  0  0
  5  6  1  0  0  0  0
  5  8  1  0  0  0  0
  5 51  1  0  0  0  0
  6  7  1  0  0  0  0
  7 61  1  0  0  0  0
  7 62  1  0  0  0  0
  8  9  1  0  0  0  0
  9 10  1  0  0  0  0
  9 50  1  0  0  0  0
  9 63  1  0  0  0  0
 10 11  1  0  0  0  0
 10 64  1  0  0  0  0
 10 65  1  0  0  0  0
 11 12  1  0  0  0  0
 11 48  1  0  0  0  0
 11 66  1  0  0  0  0
 12 13  1  0  0  0  0
 12 45  1  0  0  0  0
 12 67  1  0  0  0  0
 13 14  1  0  0  0  0
 13 68  1  0  0  0  0
 13 69  1  0  0  0  0
 14 15  1  0  0  0  0
 14 70  1  0  0  0  0
 14 71  1  0  0  0  0
 15 16  1  0  0  0  0
 15 43  1  0  0  0  0
 15 72  1  0  0  0  0
 16 17  1  0  0  0  0
 16 73  1  0  0  0  0
 16 74  1  0  0  0  0
 17 18  1  0  0  0  0
 17 41  1  0  0  0  0
 17 75  1  0  0  0  0
 18 19  1  0  0  0  0
 19 20  1  0  0  0  0
 19 28  1  0  0  0  0
 19 76  1  0  0  0  0
 20 21  1  0  0  0  0
 21 22  1  0  0  0  0
 21 24  1  0  0  0  0
 21 77  1  0  0  0  0
 22 23  1  0  0  0  0
 22 78  1  0  0  0  0
 22 79  1  0  0  0  0
 23 80  1  0  0  0  0
 24 25  1  0  0  0  0
 24 26  1  0  0  0  0
 24 81  1  0  0  0  0
 25 82  1  0  0  0  0
 26 27  1  0  0  0  0
 26 28  1  0  0  0  0
 26 83  1  0  0  0  0
 27 84  1  0  0  0  0
 28 29  1  0  0  0  0
 28 85  1  0  0  0  0
 29 30  1  0  0  0  0
 30 31  1  0  0  0  0
 30 39  1  0  0  0  0
 30 86  1  0  0  0  0
 31 32  1  0  0  0  0
 32 33  1  0  0  0  0
 32 35  1  0  0  0  0
 32 87  1  0  0  0  0
 33 34  1  0  0  0  0
 33 88  1  0  0  0  0
 33 89  1  0  0  0  0
 34 90  1  0  0  0  0
 35 36  1  0  0  0  0
 35 37  1  0  0  0  0
 35 91  1  0  0  0  0
 36 92  1  0  0  0  0
 37 38  1  0  0  0  0
 37 39  1  0  0  0  0
 37 93  1  0  0  0  0
 38 94  1  0  0  0  0
 39 40  1  0  0  0  0
 39 95  1  0  0  0  0
 40 96  1  0  0  0  0
 41 42  1  0  0  0  0
 41 97  1  0  0  0  0
 41 98  1  0  0  0  0
 42 43  1  0  0  0  0
 42 99  1  0  0  0  0
 42100  1  0  0  0  0
 43 44  1  0  0  0  0
 43 45  1  0  0  0  0
 44101  1  0  0  0  0
 44102  1  0  0  0  0
 44103  1  0  0  0  0
 45 46  1  0  0  0  0
 45104  1  0  0  0  0
 46 47  1  0  0  0  0
 46105  1  0  0  0  0
 46106  1  0  0  0  0
 47 48  1  0  0  0  0
 47107  1  0  0  0  0
 47108  1  0  0  0  0
 48 49  1  0  0  0  0
 48 50  1  0  0  0  0
 49109  1  0  0  0  0
 49110  1  0  0  0  0
 49111  1  0  0  0  0
 50 51  1  0  0  0  0
 50112  1  0  0  0  0
 51 52  1  0  0  0  0
 51113  1  0  0  0  0
 52114  1  0  0  0  0
 52115  1  0  0  0  0
 52116  1  0  0  0  0
M  END
