
 OpenBabel03132512093D

116123  0  0  0  0  0  0  0  0999 V2000
    1.0304    0.0311   -0.0901 C   0  0  0  0  0  0  0  0  0  0  0  0
    0.5237    1.0185   -1.1286 C   0  0  0  0  0  0  0  0  0  0  0  0
   -0.6291    1.7533   -0.4406 C   0  0  0  0  0  0  0  0  0  0  0  0
   -0.1151    2.5484    0.6300 C   0  0  0  0  0  0  0  0  0  0  0  0
    0.8103    3.5553    0.2163 C   0  0  0  0  0  0  0  0  0  0  0  0
    2.0214    2.8934   -0.4452 O   0  0  0  0  0  0  0  0  0  0  0  0
    1.5461    2.0445   -1.6285 C   0  0  0  0  0  0  0  0  0  0  0  0
    0.1799    4.4249   -0.7126 O   0  0  0  0  0  0  0  0  0  0  0  0
    1.0997    5.4255   -1.1237 C   0  0  0  0  0  0  0  0  0  0  0  0
    1.4319    6.0823    0.2182 C   0  0  0  0  0  0  0  0  0  0  0  0
    0.3195    5.7777    1.2243 C   0  0  0  0  0  0  0  0  0  0  0  0
    0.8852    4.9398    2.3721 C   0  0  0  0  0  0  0  0  0  0  0  0
   -0.1756    3.9473    2.8505 C   0  0  0  0  0  0  0  0  0  0  0  0
    0.4969    2.7861    3.5364 C   0  0  0  0  0  0  0  0  0  0  0  0
    0.9032    1.7267    2.8183 C   0  0  0  0  0  0  0  0  0  0  0  0
    1.5510    0.6479    3.5425 C   0  0  0  0  0  0  0  0  0  0  0  0
    2.5703   -0.0364    2.6287 C   0  0  0  0  0  0  0  0  0  0  0  0
    2.5278   -1.4403    2.8377 O   0  0  0  0  0  0  0  0  0  0  0  0
    1.2262   -1.9239    2.5404 C   0  0  0  0  0  0  0  0  0  0  0  0
    0.1214   -1.4613    3.4932 O   0  0  0  0  0  0  0  0  0  0  0  0
   -0.1540   -0.0773    3.2662 C   0  0  0  0  0  0  0  0  0  0  0  0
    1.1591    0.6665    3.4473 C   0  0  0  0  0  0  0  0  0  0  0  0
    0.9445    2.0578    3.2609 O   0  0  0  0  0  0  0  0  0  0  0  0
   -0.6156    0.2164    1.9463 C   0  0  0  0  0  0  0  0  0  0  0  0
   -0.8831    1.6067    1.8366 O   0  0  0  0  0  0  0  0  0  0  0  0
    0.4594   -0.1784    0.9310 C   0  0  0  0  0  0  0  0  0  0  0  0
    1.6308    0.5936    1.1508 O   0  0  0  0  0  0  0  0  0  0  0  0
    0.7843   -1.6663    1.0961 C   0  0  0  0  0  0  0  0  0  0  0  0
    1.8267   -2.0312    0.2036 O   0  0  0  0  0  0  0  0  0  0  0  0
    2.9849   -1.2604    0.4880 C   0  0  0  0  0  0  0  0  0  0  0  0
    2.1875    0.0456    0.4548 O   0  0  0  0  0  0  0  0  0  0  0  0
    1.0246   -0.0860    1.2751 C   0  0  0  0  0  0  0  0  0  0  0  0
    0.2523   -1.2860    0.7517 C   0  0  0  0  0  0  0  0  0  0  0  0
   -0.9351   -1.4532    1.5124 O   0  0  0  0  0  0  0  0  0  0  0  0
    1.3080   -0.3464    2.6510 C   0  0  0  0  0  0  0  0  0  0  0  0
    0.0909   -0.4323    3.3773 O   0  0  0  0  0  0  0  0  0  0  0  0
    2.0698   -1.6682    2.7730 C   0  0  0  0  0  0  0  0  0  0  0  0
    1.2581   -2.7329    2.2998 O   0  0  0  0  0  0  0  0  0  0  0  0
    3.3523   -1.5879    1.9390 C   0  0  0  0  0  0  0  0  0  0  0  0
    4.0367   -2.8309    1.9913 O   0  0  0  0  0  0  0  0  0  0  0  0
    2.2496    0.2578    1.2442 C   0  0  0  0  0  0  0  0  0  0  0  0
    2.6972   -0.6042    0.3176 C   0  0  0  0  0  0  0  0  0  0  0  0
    2.3902   -0.3701   -1.1398 C   0  0  0  0  0  0  0  0  0  0  0  0
    1.9198   -1.1612   -2.3495 C   0  0  0  0  0  0  0  0  0  0  0  0
    3.4078    0.6119   -1.7239 C   0  0  0  0  0  0  0  0  0  0  0  0
    2.7450    1.4327   -2.8323 C   0  0  0  0  0  0  0  0  0  0  0  0
    3.2739    2.8675   -2.7914 C   0  0  0  0  0  0  0  0  0  0  0  0
    2.0974    3.8449   -2.7821 C   0  0  0  0  0  0  0  0  0  0  0  0
    1.5553    3.3739   -4.1217 C   0  0  0  0  0  0  0  0  0  0  0  0
    2.3942    4.9926   -1.8140 C   0  0  0  0  0  0  0  0  0  0  0  0
    1.2668    4.3528    1.4270 C   0  0  0  0  0  0  0  0  0  0  0  0
    0.0637    5.0099    2.0838 C   0  0  0  0  0  0  0  0  0  0  0  0
    0.6737   -0.9496   -0.3265 H   0  0  0  0  0  0  0  0  0  0  0  0
    0.6737    0.3166    0.8775 H   0  0  0  0  0  0  0  0  0  0  0  0
    2.1004    0.0311   -0.0901 H   0  0  0  0  0  0  0  0  0  0  0  0
    0.2539    0.4730   -2.0086 H   0  0  0  0  0  0  0  0  0  0  0  0
   -1.1231    2.3850   -1.1490 H   0  0  0  0  0  0  0  0  0  0  0  0
   -1.3258    1.0399   -0.0525 H   0  0  0  0  0  0  0  0  0  0  0  0
    0.4193    1.8854    1.2779 H   0  0  0  0  0  0  0  0  0  0  0  0
   -0.9380    3.0281    1.1175 H   0  0  0  0  0  0  0  0  0  0  0  0
    2.3801    1.5385   -2.0682 H   0  0  0  0  0  0  0  0  0  0  0  0
    1.0910    2.6757   -2.3629 H   0  0  0  0  0  0  0  0  0  0  0  0
    0.6541    6.0243   -1.8904 H   0  0  0  0  0  0  0  0  0  0  0  0
    2.3599    5.6958    0.5845 H   0  0  0  0  0  0  0  0  0  0  0  0
    1.5137    7.1410    0.0865 H   0  0  0  0  0  0  0  0  0  0  0  0
   -0.5486    6.2227    1.6639 H   0  0  0  0  0  0  0  0  0  0  0  0
    1.3719    5.4961    3.1457 H   0  0  0  0  0  0  0  0  0  0  0  0
   -0.7352    3.5907    2.0111 H   0  0  0  0  0  0  0  0  0  0  0  0
   -0.8355    4.4342    3.5378 H   0  0  0  0  0  0  0  0  0  0  0  0
   -0.2781    2.3824    4.1539 H   0  0  0  0  0  0  0  0  0  0  0  0
    1.3633    3.1770    4.0277 H   0  0  0  0  0  0  0  0  0  0  0  0
    0.1341    2.3949    2.4914 H   0  0  0  0  0  0  0  0  0  0  0  0
    0.8165   -0.0644    3.8557 H   0  0  0  0  0  0  0  0  0  0  0  0
    2.0509    1.0441    4.4016 H   0  0  0  0  0  0  0  0  0  0  0  0
    3.5514    0.3269    2.8530 H   0  0  0  0  0  0  0  0  0  0  0  0
    1.3478   -2.9772    2.6843 H   0  0  0  0  0  0  0  0  0  0  0  0
   -0.9048    0.2344    3.9619 H   0  0  0  0  0  0  0  0  0  0  0  0
    1.5344    0.4926    4.4341 H   0  0  0  0  0  0  0  0  0  0  0  0
    1.8698    0.3158    2.7284 H   0  0  0  0  0  0  0  0  0  0  0  0
    0.5938    2.2204    2.3387 H   0  0  0  0  0  0  0  0  0  0  0  0
   -1.5111   -0.3354    1.7505 H   0  0  0  0  0  0  0  0  0  0  0  0
   -0.0462    2.1226    2.0196 H   0  0  0  0  0  0  0  0  0  0  0  0
    0.0991    0.0016   -0.0603 H   0  0  0  0  0  0  0  0  0  0  0  0
    1.9704    0.4278    2.0767 H   0  0  0  0  0  0  0  0  0  0  0  0
   -0.0857   -2.2497    0.8778 H   0  0  0  0  0  0  0  0  0  0  0  0
    3.8751   -1.3389   -0.1005 H   0  0  0  0  0  0  0  0  0  0  0  0
    0.4652    0.8241    1.2135 H   0  0  0  0  0  0  0  0  0  0  0  0
   -0.0017   -1.1264   -0.2754 H   0  0  0  0  0  0  0  0  0  0  0  0
    0.8573   -2.1644    0.8372 H   0  0  0  0  0  0  0  0  0  0  0  0
   -0.6977   -1.6024    2.4723 H   0  0  0  0  0  0  0  0  0  0  0  0
    1.9051    0.4475    3.0487 H   0  0  0  0  0  0  0  0  0  0  0  0
   -0.4673   -1.1742    3.0058 H   0  0  0  0  0  0  0  0  0  0  0  0
    2.3199   -1.8440    3.7984 H   0  0  0  0  0  0  0  0  0  0  0  0
    1.0224   -2.5717    1.3414 H   0  0  0  0  0  0  0  0  0  0  0  0
    3.9869   -0.8204    2.3302 H   0  0  0  0  0  0  0  0  0  0  0  0
    3.4472   -3.5516    1.6266 H   0  0  0  0  0  0  0  0  0  0  0  0
    2.7524    1.1783    1.0326 H   0  0  0  0  0  0  0  0  0  0  0  0
    1.1835    0.2960    1.1611 H   0  0  0  0  0  0  0  0  0  0  0  0
    2.1631   -1.5042    0.5402 H   0  0  0  0  0  0  0  0  0  0  0  0
    3.7630   -0.6298    0.4086 H   0  0  0  0  0  0  0  0  0  0  0  0
    1.4558   -2.0687   -2.0238 H   0  0  0  0  0  0  0  0  0  0  0  0
    1.2139   -0.5787   -2.9040 H   0  0  0  0  0  0  0  0  0  0  0  0
    2.7584   -1.3929   -2.9723 H   0  0  0  0  0  0  0  0  0  0  0  0
    4.3922    0.2392   -1.9159 H   0  0  0  0  0  0  0  0  0  0  0  0
    1.6851    1.4393   -2.6855 H   0  0  0  0  0  0  0  0  0  0  0  0
    2.9711    0.9963   -3.7827 H   0  0  0  0  0  0  0  0  0  0  0  0
    3.8809    3.0484   -3.6538 H   0  0  0  0  0  0  0  0  0  0  0  0
    3.8600    3.0064   -1.9070 H   0  0  0  0  0  0  0  0  0  0  0  0
    0.8391    2.5951   -3.9627 H   0  0  0  0  0  0  0  0  0  0  0  0
    1.0855    4.1934   -4.6244 H   0  0  0  0  0  0  0  0  0  0  0  0
    2.3598    3.0017   -4.7211 H   0  0  0  0  0  0  0  0  0  0  0  0
    3.0985    4.6652   -1.0780 H   0  0  0  0  0  0  0  0  0  0  0  0
    1.7419    3.6978    2.1271 H   0  0  0  0  0  0  0  0  0  0  0  0
   -0.6293    4.2560    2.3940 H   0  0  0  0  0  0  0  0  0  0  0  0
    0.3851    5.5713    2.9362 H   0  0  0  0  0  0  0  0  0  0  0  0
   -0.4114    5.6649    1.3837 H   0  0  0  0  0  0  0  0  0  0  0  0
  1  2  1  0  0  0  0
  1 53  1  0  0  0  0
  1 54  1  0  0  0  0
  1 55  1  0  0  0  0
  2  3  1  0  0  0  0
  2  7  1  0  0  0  0
  2 56  1  0  0  0  0
  3  4  1  0  0  0  0
  3 57  1  0  0  0  0
  3 58  1  0  0  0  0
  4  5  1  0  0  0  0
  4 59  1  0  0  0  0
  4 60  1  0  0  0  0
  5  6  1  0  0  0  0
  5  8  1  0  0  0  0
  5 51  1  0  0  0  0
  6  7  1  0  0  0  0
  7 61  1  0  0  0  0
  7 62  1  0  0  0  0
  8  9  1  0  0  0  0
  9 10  1  0  0  0  0
  9 50  1  0  0  0  0
  9 63  1  0  0  0  0
 10 11  1  0  0  0  0
 10 64  1  0  0  0  0
 10 65  1  0  0  0  0
 11 12  1  0  0  0  0
 11 48  1  0  0  0  0
 11 66  1  0  0  0  0
 12 13  1  0  0  0  0
 12 45  1  0  0  0  0
 12 67  1  0  0  0  0
 13 14  1  0  0  0  0
 13 68  1  0  0  0  0
 13 69  1  0  0  0  0
 14 15  1  0  0  0  0
 14 70  1  0  0  0  0
 14 71  1  0  0  0  0
 15 16  1  0  0  0  0
 15 43  1  0  0  0  0
 15 72  1  0  0  0  0
 16 17  1  0  0  0  0
 16 73  1  0  0  0  0
 16 74  1  0  0  0  0
 17 18  1  0  0  0  0
 17 41  1  0  0  0  0
 17 75  1  0  0  0  0
 18 19  1  0  0  0  0
 19 20  1  0  0  0  0
 19 28  1  0  0  0  0
 19 76  1  0  0  0  0
 20 21  1  0  0  0  0
 21 22  1  0  0  0  0
 21 24  1  0  0  0  0
 21 77  1  0  0  0  0
 22 23  1  0  0  0  0
 22 78  1  0  0  0  0
 22 79  1  0  0  0  0
 23 80  1  0  0  0  0
 24 25  1  0  0  0  0
 24 26  1  0  0  0  0
 24 81  1  0  0  0  0
 25 82  1  0  0  0  0
 26 27  1  0  0  0  0
 26 28  1  0  0  0  0
 26 83  1  0  0  0  0
 27 84  1  0  0  0  0
 28 29  1  0  0  0  0
 28 85  1  0  0  0  0
 29 30  1  0  0  0  0
 30 31  1  0  0  0  0
 30 39  1  0  0  0  0
 30 86  1  0  0  0  0
 31 32  1  0  0  0  0
 32 33  1  0  0  0  0
 32 35  1  0  0  0  0
 32 87  1  0  0  0  0
 33 34  1  0  0  0  0
 33 88  1  0  0  0  0
 33 89  1  0  0  0  0
 34 90  1  0  0  0  0
 35 36  1  0  0  0  0
 35 37  1  0  0  0  0
 35 91  1  0  0  0  0
 36 92  1  0  0  0  0
 37 38  1  0  0  0  0
 37 39  1  0  0  0  0
 37 93  1  0  0  0  0
 38 94  1  0  0  0  0
 39 40  1  0  0  0  0
 39 95  1  0  0  0  0
 40 96  1  0  0  0  0
 41 42  1  0  0  0  0
 41 97  1  0  0  0  0
 41 98  1  0  0  0  0
 42 43  1  0  0  0  0
 42 99  1  0  0  0  0
 42100  1  0  0  0  0
 43 44  1  0  0  0  0
 43 45  1  0  0  0  0
 44101  1  0  0  0  0
 44102  1  0  0  0  0
 44103  1  0  0  0  0
 45 46  1  0  0  0  0
 45104  1  0  0  0  0
 46 47  1  0  0  0  0
 46105  1  0  0  0  0
 46106  1  0  0  0  0
 47 48  1  0  0  0  0
 47107  1  0  0  0  0
 47108  1  0  0  0  0
 48 49  1  0  0  0  0
 48 50  1  0  0  0  0
 49109  1  0  0  0  0
 49110  1  0  0  0  0
 49111  1  0  0  0  0
 50 51  1  0  0  0  0
 50112  1  0  0  0  0
 51 52  1  0  0  0  0
 51113  1  0  0  0  0
 52114  1  0  0  0  0
 52115  1  0  0  0  0
 52116  1  0  0  0  0
M  END
