
 OpenBabel03132514253D

 39 40  0  0  0  0  0  0  0  0999 V2000
    0.9617    0.0909    0.0161 C   0  0  0  0  0  0  0  0  0  0  0  0
    0.2815   -0.9737   -0.4884 C   0  0  0  0  0  0  0  0  0  0  0  0
    1.3305   -1.9203   -0.8945 C   0  0  0  0  0  0  0  0  0  0  0  0
    1.2906   -2.0045   -2.4469 C   0  0  0  0  0  0  0  0  0  0  0  0
    1.0632   -0.5791   -2.9552 C   0  0  0  0  0  0  0  0  0  0  0  0
   -0.0496   -0.4251   -3.6521 C   0  0  0  0  0  0  0  0  0  0  0  0
   -0.4286    0.9533   -4.1686 C   0  0  0  0  0  0  0  0  0  0  0  0
   -0.9446   -1.5994   -3.9395 C   0  0  0  0  0  0  0  0  0  0  0  0
   -2.0454   -1.6954   -2.8799 C   0  0  0  0  0  0  0  0  0  0  0  0
   -1.4567   -2.3829   -1.6419 C   0  0  0  0  0  0  0  0  0  0  0  0
   -0.9705   -1.3711   -0.6768 C   0  0  0  0  0  0  0  0  0  0  0  0
    0.2971   -3.9507   -0.8498 C   0  0  0  0  0  0  0  0  0  0  0  0
   -0.2913   -3.2601   -2.0694 C   0  0  0  0  0  0  0  0  0  0  0  0
   -0.7804   -4.3065   -3.0574 C   0  0  0  0  0  0  0  0  0  0  0  0
    0.7749   -2.4003   -2.7284 C   0  0  0  0  0  0  0  0  0  0  0  0
    0.4267    0.9283    0.4129 H   0  0  0  0  0  0  0  0  0  0  0  0
    2.0317    0.0909    0.0161 H   0  0  0  0  0  0  0  0  0  0  0  0
    1.1675   -2.8824   -0.4556 H   0  0  0  0  0  0  0  0  0  0  0  0
    2.2878   -1.5693   -0.5700 H   0  0  0  0  0  0  0  0  0  0  0  0
    0.5138   -2.6615   -2.7784 H   0  0  0  0  0  0  0  0  0  0  0  0
    2.2180   -2.3862   -2.8201 H   0  0  0  0  0  0  0  0  0  0  0  0
    1.7451    0.2228   -2.7633 H   0  0  0  0  0  0  0  0  0  0  0  0
   -0.5414    1.6248   -3.3432 H   0  0  0  0  0  0  0  0  0  0  0  0
    0.3402    1.3141   -4.8194 H   0  0  0  0  0  0  0  0  0  0  0  0
   -1.3514    0.8912   -4.7066 H   0  0  0  0  0  0  0  0  0  0  0  0
   -0.3616   -2.4964   -3.9203 H   0  0  0  0  0  0  0  0  0  0  0  0
   -1.3917   -1.4756   -4.9037 H   0  0  0  0  0  0  0  0  0  0  0  0
   -2.8744   -2.2572   -3.2567 H   0  0  0  0  0  0  0  0  0  0  0  0
   -2.3870   -0.7148   -2.6221 H   0  0  0  0  0  0  0  0  0  0  0  0
   -2.2127   -2.9804   -1.1766 H   0  0  0  0  0  0  0  0  0  0  0  0
   -1.2911   -1.7285    0.2794 H   0  0  0  0  0  0  0  0  0  0  0  0
    1.1175   -4.5682   -1.1508 H   0  0  0  0  0  0  0  0  0  0  0  0
    0.6415   -3.2141   -0.1543 H   0  0  0  0  0  0  0  0  0  0  0  0
   -1.1946   -3.8203   -3.9159 H   0  0  0  0  0  0  0  0  0  0  0  0
    0.0400   -4.9239   -3.3584 H   0  0  0  0  0  0  0  0  0  0  0  0
   -1.5310   -4.9117   -2.5935 H   0  0  0  0  0  0  0  0  0  0  0  0
    0.3607   -1.9141   -3.5869 H   0  0  0  0  0  0  0  0  0  0  0  0
    1.1193   -1.6637   -2.0329 H   0  0  0  0  0  0  0  0  0  0  0  0
    1.5953   -3.0177   -3.0293 H   0  0  0  0  0  0  0  0  0  0  0  0
  1  2  2  0  0  0  0
  1 16  1  0  0  0  0
  1 17  1  0  0  0  0
  2  3  1  0  0  0  0
  2 11  1  0  0  0  0
  3  4  1  0  0  0  0
  3 18  1  0  0  0  0
  3 19  1  0  0  0  0
  4  5  1  0  0  0  0
  4 20  1  0  0  0  0
  4 21  1  0  0  0  0
  5  6  2  0  0  0  0
  5 22  1  0  0  0  0
  6  7  1  0  0  0  0
  6  8  1  0  0  0  0
  7 23  1  0  0  0  0
  7 24  1  0  0  0  0
  7 25  1  0  0  0  0
  8  9  1  0  0  0  0
  8 26  1  0  0  0  0
  8 27  1  0  0  0  0
  9 10  1  0  0  0  0
  9 28  1  0  0  0  0
  9 29  1  0  0  0  0
 10 11  1  0  0  0  0
 10 13  1  0  0  0  0
 10 30  1  0  0  0  0
 11 12  1  0  0  0  0
 11 31  1  0  0  0  0
 12 13  1  0  0  0  0
 12 32  1  0  0  0  0
 12 33  1  0  0  0  0
 13 14  1  0  0  0  0
 13 15  1  0  0  0  0
 14 34  1  0  0  0  0
 14 35  1  0  0  0  0
 14 36  1  0  0  0  0
 15 37  1  0  0  0  0
 15 38  1  0  0  0  0
 15 39  1  0  0  0  0
M  END
