
 OpenBabel03132514253D

 36 38  0  0  0  0  0  0  0  0999 V2000
    0.9448   -0.0451    0.0701 C   0  0  0  0  0  0  0  0  0  0  0  0
    0.4715    0.2209    1.3822 O   0  0  0  0  0  0  0  0  0  0  0  0
    0.8145   -0.6491    2.4508 C   0  0  0  0  0  0  0  0  0  0  0  0
   -0.1422   -1.1991    3.2577 C   0  0  0  0  0  0  0  0  0  0  0  0
    0.2016   -2.2164    4.1759 C   0  0  0  0  0  0  0  0  0  0  0  0
   -0.7704   -2.7842    4.9597 N   0  0  0  0  0  0  0  0  0  0  0  0
   -0.3813   -3.7152    5.7866 C   0  0  0  0  0  0  0  0  0  0  0  0
    0.8955   -4.1743    5.9655 N   0  0  0  0  0  0  0  0  0  0  0  0
    1.8372   -3.6305    5.2329 C   0  0  0  0  0  0  0  0  0  0  0  0
    3.2268   -4.0758    5.4107 N   0  0  0  0  0  0  0  0  0  0  0  0
    3.5444   -5.1168    6.3989 C   0  0  0  0  0  0  0  0  0  0  0  0
    2.9422   -6.3542    6.2373 C   0  0  0  0  0  0  0  0  0  0  0  0
    3.0766   -7.3352    7.2133 C   0  0  0  0  0  0  0  0  0  0  0  0
    3.8015   -7.0671    8.3699 C   0  0  0  0  0  0  0  0  0  0  0  0
    4.3695   -5.8140    8.5274 C   0  0  0  0  0  0  0  0  0  0  0  0
    5.2582   -5.4843    9.9830 Cl  0  0  0  0  0  0  0  0  0  0  0  0
    4.2817   -4.8355    7.5484 C   0  0  0  0  0  0  0  0  0  0  0  0
    1.5523   -2.6209    4.2700 C   0  0  0  0  0  0  0  0  0  0  0  0
    2.5258   -2.0269    3.4351 C   0  0  0  0  0  0  0  0  0  0  0  0
    2.1570   -1.0645    2.5390 C   0  0  0  0  0  0  0  0  0  0  0  0
    3.1338   -0.4790    1.6908 O   0  0  0  0  0  0  0  0  0  0  0  0
    2.7554    0.5221    0.7575 C   0  0  0  0  0  0  0  0  0  0  0  0
    0.5882    0.7109   -0.5978 H   0  0  0  0  0  0  0  0  0  0  0  0
    0.5882   -1.0016   -0.2506 H   0  0  0  0  0  0  0  0  0  0  0  0
    2.0148   -0.0451    0.0701 H   0  0  0  0  0  0  0  0  0  0  0  0
   -1.1544   -0.8582    3.1937 H   0  0  0  0  0  0  0  0  0  0  0  0
   -1.1411   -4.1679    6.3889 H   0  0  0  0  0  0  0  0  0  0  0  0
    3.9707   -3.6625    4.8484 H   0  0  0  0  0  0  0  0  0  0  0  0
    2.3701   -6.5561    5.3558 H   0  0  0  0  0  0  0  0  0  0  0  0
    2.6234   -8.2946    7.0751 H   0  0  0  0  0  0  0  0  0  0  0  0
    3.9182   -7.8162    9.1249 H   0  0  0  0  0  0  0  0  0  0  0  0
    4.7668   -3.8898    7.6720 H   0  0  0  0  0  0  0  0  0  0  0  0
    3.5495   -2.3305    3.5050 H   0  0  0  0  0  0  0  0  0  0  0  0
    2.0308    0.1219    0.0795 H   0  0  0  0  0  0  0  0  0  0  0  0
    2.3335    1.3553    1.2795 H   0  0  0  0  0  0  0  0  0  0  0  0
    3.6169    0.8432    0.2100 H   0  0  0  0  0  0  0  0  0  0  0  0
  1  2  1  0  0  0  0
  1 23  1  0  0  0  0
  1 24  1  0  0  0  0
  1 25  1  0  0  0  0
  2  3  1  0  0  0  0
  3  4  1  0  0  0  0
  3 20  2  0  0  0  0
  4  5  2  0  0  0  0
  4 26  1  0  0  0  0
  5  6  1  0  0  0  0
  5 18  1  0  0  0  0
  6  7  2  0  0  0  0
  7  8  1  0  0  0  0
  7 27  1  0  0  0  0
  8  9  2  0  0  0  0
  9 10  1  0  0  0  0
  9 18  1  0  0  0  0
 10 11  1  0  0  0  0
 10 28  1  0  0  0  0
 11 12  1  0  0  0  0
 11 17  2  0  0  0  0
 12 13  2  0  0  0  0
 12 29  1  0  0  0  0
 13 14  1  0  0  0  0
 13 30  1  0  0  0  0
 14 15  2  0  0  0  0
 14 31  1  0  0  0  0
 15 16  1  0  0  0  0
 15 17  1  0  0  0  0
 17 32  1  0  0  0  0
 18 19  2  0  0  0  0
 19 20  1  0  0  0  0
 19 33  1  0  0  0  0
 20 21  1  0  0  0  0
 21 22  1  0  0  0  0
 22 34  1  0  0  0  0
 22 35  1  0  0  0  0
 22 36  1  0  0  0  0
M  END
