
 OpenBabel03132512093D

 81 85  0  0  0  0  0  0  0  0999 V2000
    1.0615   -0.0591   -0.0523 C   0  0  0  0  0  0  0  0  0  0  0  0
    0.5548    1.2934    0.4216 C   0  0  0  0  0  0  0  0  0  0  0  0
    0.1256    1.2184    1.8078 C   0  0  0  0  0  0  0  0  0  0  0  0
   -1.1969    1.2134    2.0361 C   0  0  0  0  0  0  0  0  0  0  0  0
   -1.7171    1.1394    3.4483 C   0  0  0  0  0  0  0  0  0  0  0  0
   -1.8874    0.2063    4.6360 C   0  0  0  0  0  0  0  0  0  0  0  0
   -1.4888   -0.9981    4.5603 O   0  0  0  0  0  0  0  0  0  0  0  0
   -2.4920    0.6803    5.8303 O   0  0  0  0  0  0  0  0  0  0  0  0
   -2.8274    2.1750    3.6377 C   0  0  0  0  0  0  0  0  0  0  0  0
   -2.2528    3.4158    4.3188 C   0  0  0  0  0  0  0  0  0  0  0  0
   -2.3080    4.5993    3.3509 C   0  0  0  0  0  0  0  0  0  0  0  0
   -3.8073    4.7892    3.1886 C   0  0  0  0  0  0  0  0  0  0  0  0
    1.4424    4.6054    0.8189 C   0  0  0  0  0  0  0  0  0  0  0  0
    0.5473    5.5579    0.7278 C   0  0  0  0  0  0  0  0  0  0  0  0
    0.4127    6.5747    1.8321 C   0  0  0  0  0  0  0  0  0  0  0  0
   -1.0015    6.5112    2.4143 C   0  0  0  0  0  0  0  0  0  0  0  0
   -1.9860    6.1436    1.3161 C   0  0  0  0  0  0  0  0  0  0  0  0
   -1.9183    7.2136    0.2387 C   0  0  0  0  0  0  0  0  0  0  0  0
   -1.6238    4.7879    0.7052 C   0  0  0  0  0  0  0  0  0  0  0  0
   -1.7449    3.7697    1.7008 C   0  0  0  0  0  0  0  0  0  0  0  0
   -3.0632    3.6288    2.2332 C   0  0  0  0  0  0  0  0  0  0  0  0
   -3.0783    2.5787    3.1891 O   0  0  0  0  0  0  0  0  0  0  0  0
   -3.4837    4.9376    2.9059 C   0  0  0  0  0  0  0  0  0  0  0  0
   -2.5544    5.2351    4.0714 C   0  0  0  0  0  0  0  0  0  0  0  0
   -4.9083    4.8103    3.4205 C   0  0  0  0  0  0  0  0  0  0  0  0
   -3.4079    6.0753    1.8829 C   0  0  0  0  0  0  0  0  0  0  0  0
   -3.7563    7.3935    2.5547 C   0  0  0  0  0  0  0  0  0  0  0  0
    0.1808    4.5672    3.4259 C   0  0  0  0  0  0  0  0  0  0  0  0
   -1.0503    5.4538    3.5186 C   0  0  0  0  0  0  0  0  0  0  0  0
   -1.0803    6.1389    4.8751 C   0  0  0  0  0  0  0  0  0  0  0  0
    1.5767    3.5895   -0.2851 C   0  0  0  0  0  0  0  0  0  0  0  0
    1.7416    2.2154    0.3137 C   0  0  0  0  0  0  0  0  0  0  0  0
    2.6454    1.5066   -0.6818 C   0  0  0  0  0  0  0  0  0  0  0  0
    0.7048   -0.2462   -1.0436 H   0  0  0  0  0  0  0  0  0  0  0  0
    0.7048   -0.8240    0.6054 H   0  0  0  0  0  0  0  0  0  0  0  0
    2.1315   -0.0591   -0.0523 H   0  0  0  0  0  0  0  0  0  0  0  0
   -0.2815    1.6271   -0.1564 H   0  0  0  0  0  0  0  0  0  0  0  0
    0.4714    0.2672    2.1550 H   0  0  0  0  0  0  0  0  0  0  0  0
    0.5385    2.0623    2.3198 H   0  0  0  0  0  0  0  0  0  0  0  0
   -1.5173    0.2871    1.6070 H   0  0  0  0  0  0  0  0  0  0  0  0
   -1.5874    2.1138    1.6099 H   0  0  0  0  0  0  0  0  0  0  0  0
   -2.6040    0.0665    6.6117 H   0  0  0  0  0  0  0  0  0  0  0  0
   -3.2309    2.4451    2.6842 H   0  0  0  0  0  0  0  0  0  0  0  0
   -3.6026    1.7598    4.2473 H   0  0  0  0  0  0  0  0  0  0  0  0
   -2.8276    3.6419    5.1925 H   0  0  0  0  0  0  0  0  0  0  0  0
   -1.2368    3.2309    4.5988 H   0  0  0  0  0  0  0  0  0  0  0  0
   -4.0028    5.7651    2.7959 H   0  0  0  0  0  0  0  0  0  0  0  0
   -4.1895    4.0507    2.5152 H   0  0  0  0  0  0  0  0  0  0  0  0
   -4.2851    4.6854    4.1404 H   0  0  0  0  0  0  0  0  0  0  0  0
   -0.0884    5.6140   -0.1310 H   0  0  0  0  0  0  0  0  0  0  0  0
    0.5933    7.5536    1.4397 H   0  0  0  0  0  0  0  0  0  0  0  0
    1.1250    6.3619    2.6017 H   0  0  0  0  0  0  0  0  0  0  0  0
   -1.2627    7.4654    2.8220 H   0  0  0  0  0  0  0  0  0  0  0  0
   -2.1766    8.1621    0.6613 H   0  0  0  0  0  0  0  0  0  0  0  0
   -0.9255    7.2582   -0.1578 H   0  0  0  0  0  0  0  0  0  0  0  0
   -2.6052    6.9738   -0.5459 H   0  0  0  0  0  0  0  0  0  0  0  0
   -2.2869    4.5737   -0.1068 H   0  0  0  0  0  0  0  0  0  0  0  0
   -0.6167    4.8166    0.3449 H   0  0  0  0  0  0  0  0  0  0  0  0
   -1.1124    4.0570    2.5147 H   0  0  0  0  0  0  0  0  0  0  0  0
   -1.4574    2.8363    1.2637 H   0  0  0  0  0  0  0  0  0  0  0  0
   -3.7452    3.3995    1.4412 H   0  0  0  0  0  0  0  0  0  0  0  0
   -2.4410    2.7927    3.9294 H   0  0  0  0  0  0  0  0  0  0  0  0
   -2.8502    6.1512    4.5385 H   0  0  0  0  0  0  0  0  0  0  0  0
   -2.6086    4.4381    4.7833 H   0  0  0  0  0  0  0  0  0  0  0  0
   -1.5503    5.3255    3.7129 H   0  0  0  0  0  0  0  0  0  0  0  0
   -5.5659    4.6033    2.6023 H   0  0  0  0  0  0  0  0  0  0  0  0
   -4.9608    4.0120    4.1311 H   0  0  0  0  0  0  0  0  0  0  0  0
   -5.2009    5.7259    3.8905 H   0  0  0  0  0  0  0  0  0  0  0  0
   -4.1018    5.8909    1.0895 H   0  0  0  0  0  0  0  0  0  0  0  0
   -4.7490    7.3406    2.9507 H   0  0  0  0  0  0  0  0  0  0  0  0
   -3.0651    7.5825    3.3493 H   0  0  0  0  0  0  0  0  0  0  0  0
    1.0605    5.1649    3.5431 H   0  0  0  0  0  0  0  0  0  0  0  0
    0.1466    3.8276    4.1983 H   0  0  0  0  0  0  0  0  0  0  0  0
   -1.1144    5.3993    5.6475 H   0  0  0  0  0  0  0  0  0  0  0  0
   -0.2006    6.7366    4.9923 H   0  0  0  0  0  0  0  0  0  0  0  0
   -1.9469    6.7631    4.9404 H   0  0  0  0  0  0  0  0  0  0  0  0
    1.8820    3.9507   -1.2449 H   0  0  0  0  0  0  0  0  0  0  0  0
    2.1164    2.3539    1.3063 H   0  0  0  0  0  0  0  0  0  0  0  0
    3.5538    2.0604   -0.7960 H   0  0  0  0  0  0  0  0  0  0  0  0
    2.8695    0.5237   -0.3231 H   0  0  0  0  0  0  0  0  0  0  0  0
    2.1491    1.4367   -1.6272 H   0  0  0  0  0  0  0  0  0  0  0  0
  1  2  1  0  0  0  0
  1 34  1  0  0  0  0
  1 35  1  0  0  0  0
  1 36  1  0  0  0  0
  2  3  1  0  0  0  0
  2 32  1  0  0  0  0
  2 37  1  0  0  0  0
  3  4  1  0  0  0  0
  3 38  1  0  0  0  0
  3 39  1  0  0  0  0
  4  5  1  0  0  0  0
  4 40  1  0  0  0  0
  4 41  1  0  0  0  0
  5  6  1  0  0  0  0
  5  9  1  0  0  0  0
  5 31  1  0  0  0  0
  6  7  2  0  0  0  0
  6  8  1  0  0  0  0
  8 42  1  0  0  0  0
  9 10  1  0  0  0  0
  9 43  1  0  0  0  0
  9 44  1  0  0  0  0
 10 11  1  0  0  0  0
 10 45  1  0  0  0  0
 10 46  1  0  0  0  0
 11 12  1  0  0  0  0
 11 13  1  0  0  0  0
 11 29  1  0  0  0  0
 12 47  1  0  0  0  0
 12 48  1  0  0  0  0
 12 49  1  0  0  0  0
 13 14  2  0  0  0  0
 13 31  1  0  0  0  0
 14 15  1  0  0  0  0
 14 50  1  0  0  0  0
 15 16  1  0  0  0  0
 15 51  1  0  0  0  0
 15 52  1  0  0  0  0
 16 17  1  0  0  0  0
 16 29  1  0  0  0  0
 16 53  1  0  0  0  0
 17 18  1  0  0  0  0
 17 19  1  0  0  0  0
 17 26  1  0  0  0  0
 18 54  1  0  0  0  0
 18 55  1  0  0  0  0
 18 56  1  0  0  0  0
 19 20  1  0  0  0  0
 19 57  1  0  0  0  0
 19 58  1  0  0  0  0
 20 21  1  0  0  0  0
 20 59  1  0  0  0  0
 20 60  1  0  0  0  0
 21 22  1  0  0  0  0
 21 23  1  0  0  0  0
 21 61  1  0  0  0  0
 22 62  1  0  0  0  0
 23 24  1  0  0  0  0
 23 25  1  0  0  0  0
 23 26  1  0  0  0  0
 24 63  1  0  0  0  0
 24 64  1  0  0  0  0
 24 65  1  0  0  0  0
 25 66  1  0  0  0  0
 25 67  1  0  0  0  0
 25 68  1  0  0  0  0
 26 27  1  0  0  0  0
 26 69  1  0  0  0  0
 27 28  1  0  0  0  0
 27 70  1  0  0  0  0
 27 71  1  0  0  0  0
 28 29  1  0  0  0  0
 28 72  1  0  0  0  0
 28 73  1  0  0  0  0
 29 30  1  0  0  0  0
 30 74  1  0  0  0  0
 30 75  1  0  0  0  0
 30 76  1  0  0  0  0
 31 32  1  0  0  0  0
 31 77  1  0  0  0  0
 32 33  1  0  0  0  0
 32 78  1  0  0  0  0
 33 79  1  0  0  0  0
 33 80  1  0  0  0  0
 33 81  1  0  0  0  0
M  END
