
 OpenBabel03132514253D

 81 85  0  0  0  0  0  0  0  0999 V2000
    1.0138    0.0935   -0.0328 C   0  0  0  0  0  0  0  0  0  0  0  0
    0.5072    1.5070    0.2028 C   0  0  0  0  0  0  0  0  0  0  0  0
   -0.3318    1.5522    1.3884 C   0  0  0  0  0  0  0  0  0  0  0  0
   -1.6593    1.5859    1.1938 C   0  0  0  0  0  0  0  0  0  0  0  0
   -2.5926    1.6355    2.3755 C   0  0  0  0  0  0  0  0  0  0  0  0
   -3.1584    0.8054    3.5163 C   0  0  0  0  0  0  0  0  0  0  0  0
   -2.8040   -0.4070    3.6565 O   0  0  0  0  0  0  0  0  0  0  0  0
   -4.0828    1.3846    4.4253 O   0  0  0  0  0  0  0  0  0  0  0  0
   -3.6651    2.6997    2.1340 C   0  0  0  0  0  0  0  0  0  0  0  0
   -3.2802    3.9833    2.8674 C   0  0  0  0  0  0  0  0  0  0  0  0
   -2.9866    5.0843    1.8466 C   0  0  0  0  0  0  0  0  0  0  0  0
   -4.3538    5.2828    1.2126 C   0  0  0  0  0  0  0  0  0  0  0  0
    1.3595    4.8268    0.6132 C   0  0  0  0  0  0  0  0  0  0  0  0
    0.5749    5.7820    0.1789 C   0  0  0  0  0  0  0  0  0  0  0  0
    0.1463    6.8876    1.1091 C   0  0  0  0  0  0  0  0  0  0  0  0
   -1.3799    6.8933    1.2255 C   0  0  0  0  0  0  0  0  0  0  0  0
   -1.9909    6.4519   -0.0944 C   0  0  0  0  0  0  0  0  0  0  0  0
   -1.5498    7.4209   -1.1792 C   0  0  0  0  0  0  0  0  0  0  0  0
   -1.5174    5.0427   -0.4580 C   0  0  0  0  0  0  0  0  0  0  0  0
   -1.9751    4.1171    0.5301 C   0  0  0  0  0  0  0  0  0  0  0  0
   -3.3973    4.0435    0.6457 C   0  0  0  0  0  0  0  0  0  0  0  0
   -3.7433    3.0812    1.6309 O   0  0  0  0  0  0  0  0  0  0  0  0
   -3.9469    5.4124    1.0540 C   0  0  0  0  0  0  0  0  0  0  0  0
   -3.4011    5.7959    2.4198 C   0  0  0  0  0  0  0  0  0  0  0  0
   -5.4643    5.3524    1.1193 C   0  0  0  0  0  0  0  0  0  0  0  0
   -3.5191    6.4553    0.0167 C   0  0  0  0  0  0  0  0  0  0  0  0
   -3.9994    7.8322    0.4453 C   0  0  0  0  0  0  0  0  0  0  0  0
   -0.6460    5.0210    2.6940 C   0  0  0  0  0  0  0  0  0  0  0  0
   -1.8093    5.9307    2.3341 C   0  0  0  0  0  0  0  0  0  0  0  0
   -2.2295    6.7248    3.5601 C   0  0  0  0  0  0  0  0  0  0  0  0
    1.7877    3.7220   -0.3168 C   0  0  0  0  0  0  0  0  0  0  0  0
    1.7049    2.3992    0.4023 C   0  0  0  0  0  0  0  0  0  0  0  0
    2.8431    1.5978   -0.2082 C   0  0  0  0  0  0  0  0  0  0  0  0
    0.6572   -0.2605   -0.9774 H   0  0  0  0  0  0  0  0  0  0  0  0
    0.6572   -0.5477    0.7461 H   0  0  0  0  0  0  0  0  0  0  0  0
    2.0838    0.0935   -0.0328 H   0  0  0  0  0  0  0  0  0  0  0  0
   -0.0745    1.8310   -0.6348 H   0  0  0  0  0  0  0  0  0  0  0  0
   -0.1482    0.6275    1.8945 H   0  0  0  0  0  0  0  0  0  0  0  0
   -0.0640    2.4289    1.9403 H   0  0  0  0  0  0  0  0  0  0  0  0
   -1.8679    0.6324    0.7552 H   0  0  0  0  0  0  0  0  0  0  0  0
   -1.8629    2.4542    0.6026 H   0  0  0  0  0  0  0  0  0  0  0  0
   -4.4551    0.8385    5.1758 H   0  0  0  0  0  0  0  0  0  0  0  0
   -3.7433    2.8969    1.0853 H   0  0  0  0  0  0  0  0  0  0  0  0
   -4.6066    2.3475    2.5009 H   0  0  0  0  0  0  0  0  0  0  0  0
   -4.0872    4.2888    3.5000 H   0  0  0  0  0  0  0  0  0  0  0  0
   -2.4085    3.8066    3.4623 H   0  0  0  0  0  0  0  0  0  0  0  0
   -4.3795    6.2262    0.7083 H   0  0  0  0  0  0  0  0  0  0  0  0
   -4.5383    4.4975    0.5096 H   0  0  0  0  0  0  0  0  0  0  0  0
   -5.1058    5.2645    1.9734 H   0  0  0  0  0  0  0  0  0  0  0  0
    0.2383    5.7771   -0.8367 H   0  0  0  0  0  0  0  0  0  0  0  0
    0.4780    7.8283    0.7219 H   0  0  0  0  0  0  0  0  0  0  0  0
    0.5771    6.7278    2.0755 H   0  0  0  0  0  0  0  0  0  0  0  0
   -1.7161    7.8814    1.4610 H   0  0  0  0  0  0  0  0  0  0  0  0
   -1.8844    8.4072   -0.9340 H   0  0  0  0  0  0  0  0  0  0  0  0
   -0.4822    7.4140   -1.2510 H   0  0  0  0  0  0  0  0  0  0  0  0
   -1.9722    7.1236   -2.1163 H   0  0  0  0  0  0  0  0  0  0  0  0
   -1.9128    4.7689   -1.4138 H   0  0  0  0  0  0  0  0  0  0  0  0
   -0.4483    5.0243   -0.4961 H   0  0  0  0  0  0  0  0  0  0  0  0
   -1.6064    4.4644    1.4727 H   0  0  0  0  0  0  0  0  0  0  0  0
   -1.6078    3.1449    0.2757 H   0  0  0  0  0  0  0  0  0  0  0  0
   -3.8174    3.7567   -0.2957 H   0  0  0  0  0  0  0  0  0  0  0  0
   -3.3508    3.3489    2.5108 H   0  0  0  0  0  0  0  0  0  0  0  0
   -3.7860    6.7537    2.7016 H   0  0  0  0  0  0  0  0  0  0  0  0
   -3.7004    5.0648    3.1416 H   0  0  0  0  0  0  0  0  0  0  0  0
   -2.3328    5.8391    2.3777 H   0  0  0  0  0  0  0  0  0  0  0  0
   -5.8523    5.0852    0.1586 H   0  0  0  0  0  0  0  0  0  0  0  0
   -5.7616    4.6200    1.8404 H   0  0  0  0  0  0  0  0  0  0  0  0
   -5.8471    6.3100    1.4048 H   0  0  0  0  0  0  0  0  0  0  0  0
   -3.9482    6.2133   -0.9332 H   0  0  0  0  0  0  0  0  0  0  0  0
   -5.0665    7.8294    0.5234 H   0  0  0  0  0  0  0  0  0  0  0  0
   -3.5729    8.0791    1.3951 H   0  0  0  0  0  0  0  0  0  0  0  0
    0.1775    5.6130    3.0349 H   0  0  0  0  0  0  0  0  0  0  0  0
   -0.9464    4.3476    3.4694 H   0  0  0  0  0  0  0  0  0  0  0  0
   -2.5299    6.0514    4.3355 H   0  0  0  0  0  0  0  0  0  0  0  0
   -1.4060    7.3168    3.9011 H   0  0  0  0  0  0  0  0  0  0  0  0
   -3.0485    7.3652    3.3069 H   0  0  0  0  0  0  0  0  0  0  0  0
    2.3886    3.9988   -1.1578 H   0  0  0  0  0  0  0  0  0  0  0  0
    1.7601    2.6128    1.4493 H   0  0  0  0  0  0  0  0  0  0  0  0
    3.7636    2.1266   -0.0743 H   0  0  0  0  0  0  0  0  0  0  0  0
    2.9063    0.6443    0.2733 H   0  0  0  0  0  0  0  0  0  0  0  0
    2.6607    1.4582   -1.2532 H   0  0  0  0  0  0  0  0  0  0  0  0
  1  2  1  0  0  0  0
  1 34  1  0  0  0  0
  1 35  1  0  0  0  0
  1 36  1  0  0  0  0
  2  3  1  0  0  0  0
  2 32  1  0  0  0  0
  2 37  1  0  0  0  0
  3  4  1  0  0  0  0
  3 38  1  0  0  0  0
  3 39  1  0  0  0  0
  4  5  1  0  0  0  0
  4 40  1  0  0  0  0
  4 41  1  0  0  0  0
  5  6  1  0  0  0  0
  5  9  1  0  0  0  0
  5 31  1  0  0  0  0
  6  7  2  0  0  0  0
  6  8  1  0  0  0  0
  8 42  1  0  0  0  0
  9 10  1  0  0  0  0
  9 43  1  0  0  0  0
  9 44  1  0  0  0  0
 10 11  1  0  0  0  0
 10 45  1  0  0  0  0
 10 46  1  0  0  0  0
 11 12  1  0  0  0  0
 11 13  1  0  0  0  0
 11 29  1  0  0  0  0
 12 47  1  0  0  0  0
 12 48  1  0  0  0  0
 12 49  1  0  0  0  0
 13 14  2  0  0  0  0
 13 31  1  0  0  0  0
 14 15  1  0  0  0  0
 14 50  1  0  0  0  0
 15 16  1  0  0  0  0
 15 51  1  0  0  0  0
 15 52  1  0  0  0  0
 16 17  1  0  0  0  0
 16 29  1  0  0  0  0
 16 53  1  0  0  0  0
 17 18  1  0  0  0  0
 17 19  1  0  0  0  0
 17 26  1  0  0  0  0
 18 54  1  0  0  0  0
 18 55  1  0  0  0  0
 18 56  1  0  0  0  0
 19 20  1  0  0  0  0
 19 57  1  0  0  0  0
 19 58  1  0  0  0  0
 20 21  1  0  0  0  0
 20 59  1  0  0  0  0
 20 60  1  0  0  0  0
 21 22  1  0  0  0  0
 21 23  1  0  0  0  0
 21 61  1  0  0  0  0
 22 62  1  0  0  0  0
 23 24  1  0  0  0  0
 23 25  1  0  0  0  0
 23 26  1  0  0  0  0
 24 63  1  0  0  0  0
 24 64  1  0  0  0  0
 24 65  1  0  0  0  0
 25 66  1  0  0  0  0
 25 67  1  0  0  0  0
 25 68  1  0  0  0  0
 26 27  1  0  0  0  0
 26 69  1  0  0  0  0
 27 28  1  0  0  0  0
 27 70  1  0  0  0  0
 27 71  1  0  0  0  0
 28 29  1  0  0  0  0
 28 72  1  0  0  0  0
 28 73  1  0  0  0  0
 29 30  1  0  0  0  0
 30 74  1  0  0  0  0
 30 75  1  0  0  0  0
 30 76  1  0  0  0  0
 31 32  1  0  0  0  0
 31 77  1  0  0  0  0
 32 33  1  0  0  0  0
 32 78  1  0  0  0  0
 33 79  1  0  0  0  0
 33 80  1  0  0  0  0
 33 81  1  0  0  0  0
M  END
