
 OpenBabel03132512093D

 26 25  0  0  0  0  0  0  0  0999 V2000
    1.0396    0.0598   -0.0697 C   0  0  0  0  0  0  0  0  0  0  0  0
    0.5329    0.9172    1.0785 C   0  0  0  0  0  0  0  0  0  0  0  0
    1.0396    2.3403    0.9101 C   0  0  0  0  0  0  0  0  0  0  0  0
    0.5329    2.9060   -0.4066 C   0  0  0  0  0  0  0  0  0  0  0  0
   -0.9871    2.9060   -0.4066 C   0  0  0  0  0  0  0  0  0  0  0  0
   -1.4938    3.7635    0.7417 C   0  0  0  0  0  0  0  0  0  0  0  0
   -0.9871    5.1866    0.5733 C   0  0  0  0  0  0  0  0  0  0  0  0
    1.0396    4.3292   -0.5750 C   0  0  0  0  0  0  0  0  0  0  0  0
    1.7702    4.6299   -1.5704 O   0  0  0  0  0  0  0  0  0  0  0  0
    0.6965    5.3226    0.3799 O   0  0  0  0  0  0  0  0  0  0  0  0
    0.6829    0.4580   -0.9966 H   0  0  0  0  0  0  0  0  0  0  0  0
    0.6829   -0.9421    0.0488 H   0  0  0  0  0  0  0  0  0  0  0  0
    2.1096    0.0598   -0.0697 H   0  0  0  0  0  0  0  0  0  0  0  0
   -0.5371    0.9172    1.0785 H   0  0  0  0  0  0  0  0  0  0  0  0
    0.8896    0.5189    2.0054 H   0  0  0  0  0  0  0  0  0  0  0  0
    0.6829    2.9439    1.7184 H   0  0  0  0  0  0  0  0  0  0  0  0
    2.1096    2.3403    0.9101 H   0  0  0  0  0  0  0  0  0  0  0  0
    0.8896    2.3025   -1.2149 H   0  0  0  0  0  0  0  0  0  0  0  0
   -1.3438    3.3043   -1.3335 H   0  0  0  0  0  0  0  0  0  0  0  0
   -1.3438    1.9042   -0.2880 H   0  0  0  0  0  0  0  0  0  0  0  0
   -2.5638    3.7635    0.7417 H   0  0  0  0  0  0  0  0  0  0  0  0
   -1.1371    3.3652    1.6686 H   0  0  0  0  0  0  0  0  0  0  0  0
   -1.3438    5.5848   -0.3536 H   0  0  0  0  0  0  0  0  0  0  0  0
   -1.3438    5.7902    1.3816 H   0  0  0  0  0  0  0  0  0  0  0  0
    0.0829    5.1866    0.5733 H   0  0  0  0  0  0  0  0  0  0  0  0
    1.0298    6.2589    0.2691 H   0  0  0  0  0  0  0  0  0  0  0  0
  1  2  1  0  0  0  0
  1 11  1  0  0  0  0
  1 12  1  0  0  0  0
  1 13  1  0  0  0  0
  2  3  1  0  0  0  0
  2 14  1  0  0  0  0
  2 15  1  0  0  0  0
  3  4  1  0  0  0  0
  3 16  1  0  0  0  0
  3 17  1  0  0  0  0
  4  5  1  0  0  0  0
  4  8  1  0  0  0  0
  4 18  1  0  0  0  0
  5  6  1  0  0  0  0
  5 19  1  0  0  0  0
  5 20  1  0  0  0  0
  6  7  1  0  0  0  0
  6 21  1  0  0  0  0
  6 22  1  0  0  0  0
  7 23  1  0  0  0  0
  7 24  1  0  0  0  0
  7 25  1  0  0  0  0
  8  9  2  0  0  0  0
  8 10  1  0  0  0  0
 10 26  1  0  0  0  0
M  END
