
 OpenBabel03132512093D

 80 83  0  0  0  0  0  0  0  0999 V2000
    1.0453   -0.0221    0.0864 C   0  0  0  0  0  0  0  0  0  0  0  0
    0.5386    1.3940    0.3064 C   0  0  0  0  0  0  0  0  0  0  0  0
    0.5507    2.8115   -0.2706 O   0  0  0  0  0  0  0  0  0  0  0  0
    0.9050    2.7590   -1.6542 C   0  0  0  0  0  0  0  0  0  0  0  0
    2.1613    2.1016   -1.7308 O   0  0  0  0  0  0  0  0  0  0  0  0
    2.0382    0.7841   -1.2156 C   0  0  0  0  0  0  0  0  0  0  0  0
    1.5232    1.0631    0.1984 C   0  0  0  0  0  0  0  0  0  0  0  0
    1.4245   -0.1582    0.9161 O   0  0  0  0  0  0  0  0  0  0  0  0
    0.2348    1.6771    0.1230 C   0  0  0  0  0  0  0  0  0  0  0  0
    0.3836    2.8453   -0.6704 O   0  0  0  0  0  0  0  0  0  0  0  0
    0.8198    2.4813   -1.9718 C   0  0  0  0  0  0  0  0  0  0  0  0
    2.1547    1.7607   -1.8757 C   0  0  0  0  0  0  0  0  0  0  0  0
    1.9954    0.5102   -1.0264 C   0  0  0  0  0  0  0  0  0  0  0  0
    1.7641    0.6097    0.3498 C   0  0  0  0  0  0  0  0  0  0  0  0
    1.7490   -0.5748    1.1058 C   0  0  0  0  0  0  0  0  0  0  0  0
    1.9355   -1.8114    0.5108 C   0  0  0  0  0  0  0  0  0  0  0  0
    1.9360   -2.9789    1.2209 O   0  0  0  0  0  0  0  0  0  0  0  0
    2.1593   -1.8903   -0.8663 C   0  0  0  0  0  0  0  0  0  0  0  0
    2.3081   -3.0823   -1.5031 O   0  0  0  0  0  0  0  0  0  0  0  0
    2.1920   -0.7264   -1.6139 C   0  0  0  0  0  0  0  0  0  0  0  0
   -0.7589    0.8710   -0.5126 O   0  0  0  0  0  0  0  0  0  0  0  0
   -0.3362    0.5842   -1.9553 C   0  0  0  0  0  0  0  0  0  0  0  0
   -0.2474    1.8884   -2.7310 C   0  0  0  0  0  0  0  0  0  0  0  0
    0.1469    1.6179   -4.0681 O   0  0  0  0  0  0  0  0  0  0  0  0
    1.0311   -0.1066   -1.9504 C   0  0  0  0  0  0  0  0  0  0  0  0
    1.4650   -0.3203   -3.2855 O   0  0  0  0  0  0  0  0  0  0  0  0
    1.6442    0.7845   -4.1593 C   0  0  0  0  0  0  0  0  0  0  0  0
    1.4164    1.9647   -3.7464 O   0  0  0  0  0  0  0  0  0  0  0  0
    2.1087    0.5557   -5.5884 C   0  0  0  0  0  0  0  0  0  0  0  0
    2.3526   -0.7075   -6.0303 C   0  0  0  0  0  0  0  0  0  0  0  0
    2.8170   -0.9363   -7.4594 C   0  0  0  0  0  0  0  0  0  0  0  0
    3.8205   -0.1233   -7.9975 C   0  0  0  0  0  0  0  0  0  0  0  0
    4.2484   -0.3815   -9.3108 C   0  0  0  0  0  0  0  0  0  0  0  0
    3.7128   -1.4222  -10.0513 C   0  0  0  0  0  0  0  0  0  0  0  0
    4.1015   -1.6912  -11.3335 O   0  0  0  0  0  0  0  0  0  0  0  0
    2.7154   -2.2267   -9.4941 C   0  0  0  0  0  0  0  0  0  0  0  0
    2.1867   -3.2844  -10.1651 O   0  0  0  0  0  0  0  0  0  0  0  0
    2.2778   -1.9673   -8.2072 C   0  0  0  0  0  0  0  0  0  0  0  0
   -0.0036    2.0070   -2.4606 C   0  0  0  0  0  0  0  0  0  0  0  0
    0.4246    2.0409   -3.8140 O   0  0  0  0  0  0  0  0  0  0  0  0
   -0.0381    0.5569   -1.9722 C   0  0  0  0  0  0  0  0  0  0  0  0
    1.2464   -0.0290   -2.1240 O   0  0  0  0  0  0  0  0  0  0  0  0
   -0.4438    0.5338   -0.4952 C   0  0  0  0  0  0  0  0  0  0  0  0
   -0.4171   -0.8011   -0.0116 O   0  0  0  0  0  0  0  0  0  0  0  0
    0.6886   -0.3864   -0.8544 H   0  0  0  0  0  0  0  0  0  0  0  0
    0.6887   -0.6546    0.8722 H   0  0  0  0  0  0  0  0  0  0  0  0
    2.1153   -0.0221    0.0864 H   0  0  0  0  0  0  0  0  0  0  0  0
    0.8005    1.8888    1.2183 H   0  0  0  0  0  0  0  0  0  0  0  0
    0.9390    3.7601   -2.0306 H   0  0  0  0  0  0  0  0  0  0  0  0
    2.9599    0.2469   -1.2983 H   0  0  0  0  0  0  0  0  0  0  0  0
    2.2020    1.7188    0.7024 H   0  0  0  0  0  0  0  0  0  0  0  0
    0.7902   -0.7713    0.4452 H   0  0  0  0  0  0  0  0  0  0  0  0
   -0.0935    1.8928    1.1183 H   0  0  0  0  0  0  0  0  0  0  0  0
    0.0966    1.8339   -2.4223 H   0  0  0  0  0  0  0  0  0  0  0  0
    0.9319    3.3616   -2.5697 H   0  0  0  0  0  0  0  0  0  0  0  0
    2.4833    1.4864   -2.8563 H   0  0  0  0  0  0  0  0  0  0  0  0
    2.8778    2.4081   -1.4253 H   0  0  0  0  0  0  0  0  0  0  0  0
    1.6034    1.5605    0.8134 H   0  0  0  0  0  0  0  0  0  0  0  0
    1.5901   -0.5201    2.1625 H   0  0  0  0  0  0  0  0  0  0  0  0
    1.7794   -2.9635    2.2085 H   0  0  0  0  0  0  0  0  0  0  0  0
    2.2873   -3.9345   -0.9802 H   0  0  0  0  0  0  0  0  0  0  0  0
    2.3729   -0.7841   -2.6669 H   0  0  0  0  0  0  0  0  0  0  0  0
   -1.0583   -0.0542   -2.4199 H   0  0  0  0  0  0  0  0  0  0  0  0
   -1.2034    2.3690   -2.7313 H   0  0  0  0  0  0  0  0  0  0  0  0
    0.4740    2.5296   -2.2692 H   0  0  0  0  0  0  0  0  0  0  0  0
    1.0403    1.1688   -4.0678 H   0  0  0  0  0  0  0  0  0  0  0  0
    0.9546   -1.0495   -1.4504 H   0  0  0  0  0  0  0  0  0  0  0  0
    2.2438    1.3883   -6.2468 H   0  0  0  0  0  0  0  0  0  0  0  0
    2.2175   -1.5401   -5.3719 H   0  0  0  0  0  0  0  0  0  0  0  0
    4.2499    0.6723   -7.4252 H   0  0  0  0  0  0  0  0  0  0  0  0
    5.0033    0.2384   -9.7476 H   0  0  0  0  0  0  0  0  0  0  0  0
    4.8125   -1.1376  -11.7670 H   0  0  0  0  0  0  0  0  0  0  0  0
    2.4901   -3.4881  -11.0960 H   0  0  0  0  0  0  0  0  0  0  0  0
    1.5073   -2.5762   -7.7824 H   0  0  0  0  0  0  0  0  0  0  0  0
   -0.9827    2.4320   -2.3859 H   0  0  0  0  0  0  0  0  0  0  0  0
    1.3397    1.6437   -3.8842 H   0  0  0  0  0  0  0  0  0  0  0  0
   -0.7494    0.0021   -2.5476 H   0  0  0  0  0  0  0  0  0  0  0  0
    1.9138    0.4872   -1.5873 H   0  0  0  0  0  0  0  0  0  0  0  0
   -1.4335    0.9264   -0.3889 H   0  0  0  0  0  0  0  0  0  0  0  0
    0.5063   -1.1724   -0.1089 H   0  0  0  0  0  0  0  0  0  0  0  0
  1  2  1  0  0  0  0
  1 45  1  0  0  0  0
  1 46  1  0  0  0  0
  1 47  1  0  0  0  0
  2  3  1  0  0  0  0
  2 43  1  0  0  0  0
  2 48  1  0  0  0  0
  3  4  1  0  0  0  0
  4  5  1  0  0  0  0
  4 39  1  0  0  0  0
  4 49  1  0  0  0  0
  5  6  1  0  0  0  0
  6  7  1  0  0  0  0
  6 25  1  0  0  0  0
  6 50  1  0  0  0  0
  7  8  1  0  0  0  0
  7  9  1  0  0  0  0
  7 51  1  0  0  0  0
  8 52  1  0  0  0  0
  9 10  1  0  0  0  0
  9 21  1  0  0  0  0
  9 53  1  0  0  0  0
 10 11  1  0  0  0  0
 11 12  1  0  0  0  0
 11 54  1  0  0  0  0
 11 55  1  0  0  0  0
 12 13  1  0  0  0  0
 12 56  1  0  0  0  0
 12 57  1  0  0  0  0
 13 14  1  0  0  0  0
 13 20  2  0  0  0  0
 14 15  2  0  0  0  0
 14 58  1  0  0  0  0
 15 16  1  0  0  0  0
 15 59  1  0  0  0  0
 16 17  1  0  0  0  0
 16 18  2  0  0  0  0
 17 60  1  0  0  0  0
 18 19  1  0  0  0  0
 18 20  1  0  0  0  0
 19 61  1  0  0  0  0
 20 62  1  0  0  0  0
 21 22  1  0  0  0  0
 22 23  1  0  0  0  0
 22 25  1  0  0  0  0
 22 63  1  0  0  0  0
 23 24  1  0  0  0  0
 23 64  1  0  0  0  0
 23 65  1  0  0  0  0
 24 66  1  0  0  0  0
 25 26  1  0  0  0  0
 25 67  1  0  0  0  0
 26 27  1  0  0  0  0
 27 28  2  0  0  0  0
 27 29  1  0  0  0  0
 29 30  2  0  0  0  0
 29 68  1  0  0  0  0
 30 31  1  0  0  0  0
 30 69  1  0  0  0  0
 31 32  1  0  0  0  0
 31 38  2  0  0  0  0
 32 33  2  0  0  0  0
 32 70  1  0  0  0  0
 33 34  1  0  0  0  0
 33 71  1  0  0  0  0
 34 35  1  0  0  0  0
 34 36  2  0  0  0  0
 35 72  1  0  0  0  0
 36 37  1  0  0  0  0
 36 38  1  0  0  0  0
 37 73  1  0  0  0  0
 38 74  1  0  0  0  0
 39 40  1  0  0  0  0
 39 41  1  0  0  0  0
 39 75  1  0  0  0  0
 40 76  1  0  0  0  0
 41 42  1  0  0  0  0
 41 43  1  0  0  0  0
 41 77  1  0  0  0  0
 42 78  1  0  0  0  0
 43 44  1  0  0  0  0
 43 79  1  0  0  0  0
 44 80  1  0  0  0  0
M  END
