
 OpenBabel03132514253D

 72 74  0  0  0  0  0  0  0  0999 V2000
    0.9984   -0.0768   -0.0640 C   0  0  0  0  0  0  0  0  0  0  0  0
    0.3182   -0.8032   -0.9916 C   0  0  0  0  0  0  0  0  0  0  0  0
    0.9591   -1.7065   -2.0479 C   0  0  0  0  0  0  0  0  0  0  0  0
    0.4981   -3.0476   -1.8702 C   0  0  0  0  0  0  0  0  0  0  0  0
   -0.9147   -3.2026   -2.0158 C   0  0  0  0  0  0  0  0  0  0  0  0
   -1.2612   -4.5693   -1.8470 O   0  0  0  0  0  0  0  0  0  0  0  0
   -1.6314   -2.3598   -0.9582 C   0  0  0  0  0  0  0  0  0  0  0  0
   -1.2067   -0.8958   -1.1098 C   0  0  0  0  0  0  0  0  0  0  0  0
   -2.0479    0.1532   -1.3162 C   0  0  0  0  0  0  0  0  0  0  0  0
   -3.5464   -0.0821   -1.4138 C   0  0  0  0  0  0  0  0  0  0  0  0
   -4.3876    0.9669   -1.6202 C   0  0  0  0  0  0  0  0  0  0  0  0
   -4.1256    2.4736   -1.5598 C   0  0  0  0  0  0  0  0  0  0  0  0
   -4.6863    3.1007   -2.7153 C   0  0  0  0  0  0  0  0  0  0  0  0
   -6.1016    2.9456   -2.8339 C   0  0  0  0  0  0  0  0  0  0  0  0
   -6.4435    1.4580   -2.9458 C   0  0  0  0  0  0  0  0  0  0  0  0
   -7.9524    1.2864   -3.0117 C   0  0  0  0  0  0  0  0  0  0  0  0
   -5.8972    0.7231   -1.7177 C   0  0  0  0  0  0  0  0  0  0  0  0
   -7.6679   -0.7638   -4.3728 C   0  0  0  0  0  0  0  0  0  0  0  0
   -6.1585   -0.5947   -4.3119 C   0  0  0  0  0  0  0  0  0  0  0  0
   -5.8181    0.8829   -4.2061 C   0  0  0  0  0  0  0  0  0  0  0  0
   -6.3615    1.6163   -5.4215 C   0  0  0  0  0  0  0  0  0  0  0  0
   -6.0210    3.0939   -5.3157 C   0  0  0  0  0  0  0  0  0  0  0  0
   -5.7360    1.0412   -6.6819 C   0  0  0  0  0  0  0  0  0  0  0  0
   -6.0765   -0.4364   -6.7877 C   0  0  0  0  0  0  0  0  0  0  0  0
   -7.5858   -0.6055   -6.8485 C   0  0  0  0  0  0  0  0  0  0  0  0
   -8.1292    0.1279   -8.0639 C   0  0  0  0  0  0  0  0  0  0  0  0
   -7.5037   -0.4471   -9.3242 C   0  0  0  0  0  0  0  0  0  0  0  0
   -9.6386   -0.0411   -8.1247 C   0  0  0  0  0  0  0  0  0  0  0  0
    0.4634    0.4946    0.6655 H   0  0  0  0  0  0  0  0  0  0  0  0
    2.0684   -0.0768   -0.0640 H   0  0  0  0  0  0  0  0  0  0  0  0
    0.6878   -1.3622   -3.0240 H   0  0  0  0  0  0  0  0  0  0  0  0
    2.0236   -1.6782   -1.9431 H   0  0  0  0  0  0  0  0  0  0  0  0
    0.7372   -3.3256   -0.8650 H   0  0  0  0  0  0  0  0  0  0  0  0
    0.9809   -3.6678   -2.5963 H   0  0  0  0  0  0  0  0  0  0  0  0
   -1.2106   -2.8778   -2.9914 H   0  0  0  0  0  0  0  0  0  0  0  0
   -0.9847   -4.8731   -0.9353 H   0  0  0  0  0  0  0  0  0  0  0  0
   -1.3714   -2.7108    0.0186 H   0  0  0  0  0  0  0  0  0  0  0  0
   -2.6899   -2.4413   -1.0923 H   0  0  0  0  0  0  0  0  0  0  0  0
   -1.6547    1.1439   -1.4097 H   0  0  0  0  0  0  0  0  0  0  0  0
   -3.9396   -1.0728   -1.3203 H   0  0  0  0  0  0  0  0  0  0  0  0
   -4.5774    2.8794   -0.6789 H   0  0  0  0  0  0  0  0  0  0  0  0
   -3.0709    2.6515   -1.5337 H   0  0  0  0  0  0  0  0  0  0  0  0
   -4.2508    2.6228   -3.5678 H   0  0  0  0  0  0  0  0  0  0  0  0
   -4.4654    4.1467   -2.6704 H   0  0  0  0  0  0  0  0  0  0  0  0
   -6.4447    3.4574   -3.7086 H   0  0  0  0  0  0  0  0  0  0  0  0
   -6.5793    3.3574   -1.9696 H   0  0  0  0  0  0  0  0  0  0  0  0
   -8.3961    1.6878   -2.1247 H   0  0  0  0  0  0  0  0  0  0  0  0
   -8.3332    1.8044   -3.8670 H   0  0  0  0  0  0  0  0  0  0  0  0
   -8.1899    0.2460   -3.0899 H   0  0  0  0  0  0  0  0  0  0  0  0
   -6.3777    1.0920   -0.8358 H   0  0  0  0  0  0  0  0  0  0  0  0
   -7.9075   -1.8040   -4.4472 H   0  0  0  0  0  0  0  0  0  0  0  0
   -8.1082   -0.3590   -3.4856 H   0  0  0  0  0  0  0  0  0  0  0  0
   -5.7182   -0.9996   -5.1991 H   0  0  0  0  0  0  0  0  0  0  0  0
   -5.7760   -1.1110   -3.4563 H   0  0  0  0  0  0  0  0  0  0  0  0
   -4.7556    1.0019   -4.1633 H   0  0  0  0  0  0  0  0  0  0  0  0
   -7.4240    1.4973   -5.4644 H   0  0  0  0  0  0  0  0  0  0  0  0
   -4.9585    3.2129   -5.2729 H   0  0  0  0  0  0  0  0  0  0  0  0
   -6.4036    3.6102   -6.1713 H   0  0  0  0  0  0  0  0  0  0  0  0
   -6.4613    3.4987   -4.4285 H   0  0  0  0  0  0  0  0  0  0  0  0
   -6.1185    1.5575   -7.5374 H   0  0  0  0  0  0  0  0  0  0  0  0
   -4.6735    1.1602   -6.6390 H   0  0  0  0  0  0  0  0  0  0  0  0
   -5.6362   -0.8412   -7.6749 H   0  0  0  0  0  0  0  0  0  0  0  0
   -5.6939   -0.9527   -5.9321 H   0  0  0  0  0  0  0  0  0  0  0  0
   -7.8255   -1.6456   -6.9230 H   0  0  0  0  0  0  0  0  0  0  0  0
   -8.0261   -0.2006   -5.9613 H   0  0  0  0  0  0  0  0  0  0  0  0
   -7.8895    1.1681   -7.9894 H   0  0  0  0  0  0  0  0  0  0  0  0
   -7.7434   -1.4873   -9.3987 H   0  0  0  0  0  0  0  0  0  0  0  0
   -7.8863    0.0692  -10.1798 H   0  0  0  0  0  0  0  0  0  0  0  0
   -6.4412   -0.3281   -9.2814 H   0  0  0  0  0  0  0  0  0  0  0  0
  -10.0789    0.3637   -7.2375 H   0  0  0  0  0  0  0  0  0  0  0  0
  -10.0211    0.4752   -8.9803 H   0  0  0  0  0  0  0  0  0  0  0  0
   -9.8782   -1.0813   -8.1992 H   0  0  0  0  0  0  0  0  0  0  0  0
  1  2  2  0  0  0  0
  1 29  1  0  0  0  0
  1 30  1  0  0  0  0
  2  3  1  0  0  0  0
  2  8  1  0  0  0  0
  3  4  1  0  0  0  0
  3 31  1  0  0  0  0
  3 32  1  0  0  0  0
  4  5  1  0  0  0  0
  4 33  1  0  0  0  0
  4 34  1  0  0  0  0
  5  6  1  0  0  0  0
  5  7  1  0  0  0  0
  5 35  1  0  0  0  0
  6 36  1  0  0  0  0
  7  8  1  0  0  0  0
  7 37  1  0  0  0  0
  7 38  1  0  0  0  0
  8  9  2  0  0  0  0
  9 10  1  0  0  0  0
  9 39  1  0  0  0  0
 10 11  2  0  0  0  0
 10 40  1  0  0  0  0
 11 12  1  0  0  0  0
 11 17  1  0  0  0  0
 12 13  1  0  0  0  0
 12 41  1  0  0  0  0
 12 42  1  0  0  0  0
 13 14  1  0  0  0  0
 13 43  1  0  0  0  0
 13 44  1  0  0  0  0
 14 15  1  0  0  0  0
 14 45  1  0  0  0  0
 14 46  1  0  0  0  0
 15 16  1  0  0  0  0
 15 17  1  0  0  0  0
 15 20  1  0  0  0  0
 16 47  1  0  0  0  0
 16 48  1  0  0  0  0
 16 49  1  0  0  0  0
 17 18  1  0  0  0  0
 17 50  1  0  0  0  0
 18 19  1  0  0  0  0
 18 51  1  0  0  0  0
 18 52  1  0  0  0  0
 19 20  1  0  0  0  0
 19 53  1  0  0  0  0
 19 54  1  0  0  0  0
 20 21  1  0  0  0  0
 20 55  1  0  0  0  0
 21 22  1  0  0  0  0
 21 23  1  0  0  0  0
 21 56  1  0  0  0  0
 22 57  1  0  0  0  0
 22 58  1  0  0  0  0
 22 59  1  0  0  0  0
 23 24  1  0  0  0  0
 23 60  1  0  0  0  0
 23 61  1  0  0  0  0
 24 25  1  0  0  0  0
 24 62  1  0  0  0  0
 24 63  1  0  0  0  0
 25 26  1  0  0  0  0
 25 64  1  0  0  0  0
 25 65  1  0  0  0  0
 26 27  1  0  0  0  0
 26 28  1  0  0  0  0
 26 66  1  0  0  0  0
 27 67  1  0  0  0  0
 27 68  1  0  0  0  0
 27 69  1  0  0  0  0
 28 70  1  0  0  0  0
 28 71  1  0  0  0  0
 28 72  1  0  0  0  0
M  END
