
 OpenBabel03132514253D

 23 22  0  0  0  0  0  0  0  0999 V2000
    0.9329   -0.0703    0.0237 O   0  0  0  0  0  0  0  0  0  0  0  0
    2.2038   -0.0703    0.0237 C   0  0  0  0  0  0  0  0  0  0  0  0
    2.9638    0.2517    1.3000 C   0  0  0  0  0  0  0  0  0  0  0  0
    3.8377   -0.9319    1.6817 C   0  0  0  0  0  0  0  0  0  0  0  0
    4.7605   -1.1960    0.6352 O   0  0  0  0  0  0  0  0  0  0  0  0
    4.5977   -0.6099    2.9581 C   0  0  0  0  0  0  0  0  0  0  0  0
    3.6750   -0.3458    4.0046 O   0  0  0  0  0  0  0  0  0  0  0  0
    5.4716   -1.7935    3.3398 C   0  0  0  0  0  0  0  0  0  0  0  0
    6.3943   -2.0576    2.2933 O   0  0  0  0  0  0  0  0  0  0  0  0
    6.2316   -1.4715    4.6161 C   0  0  0  0  0  0  0  0  0  0  0  0
    5.3088   -1.2074    5.6626 O   0  0  0  0  0  0  0  0  0  0  0  0
    2.7388   -0.2970   -0.8748 H   0  0  0  0  0  0  0  0  0  0  0  0
    3.5790    1.1127    1.1412 H   0  0  0  0  0  0  0  0  0  0  0  0
    2.2685    0.4507    2.0886 H   0  0  0  0  0  0  0  0  0  0  0  0
    3.2226   -1.7929    1.8405 H   0  0  0  0  0  0  0  0  0  0  0  0
    4.2605   -1.4078   -0.2045 H   0  0  0  0  0  0  0  0  0  0  0  0
    5.2129    0.2511    2.7993 H   0  0  0  0  0  0  0  0  0  0  0  0
    3.1000    0.4329    3.7535 H   0  0  0  0  0  0  0  0  0  0  0  0
    4.8564   -2.6545    3.4986 H   0  0  0  0  0  0  0  0  0  0  0  0
    5.8943   -2.2695    1.4536 H   0  0  0  0  0  0  0  0  0  0  0  0
    6.8467   -2.3047    4.8848 H   0  0  0  0  0  0  0  0  0  0  0  0
    6.8467   -0.6105    4.4573 H   0  0  0  0  0  0  0  0  0  0  0  0
    4.7339   -0.4287    5.4115 H   0  0  0  0  0  0  0  0  0  0  0  0
  1  2  2  0  0  0  0
  2  3  1  0  0  0  0
  2 12  1  0  0  0  0
  3  4  1  0  0  0  0
  3 13  1  0  0  0  0
  3 14  1  0  0  0  0
  4  5  1  0  0  0  0
  4  6  1  0  0  0  0
  4 15  1  0  0  0  0
  5 16  1  0  0  0  0
  6  7  1  0  0  0  0
  6  8  1  0  0  0  0
  6 17  1  0  0  0  0
  7 18  1  0  0  0  0
  8  9  1  0  0  0  0
  8 10  1  0  0  0  0
  8 19  1  0  0  0  0
  9 20  1  0  0  0  0
 10 11  1  0  0  0  0
 10 21  1  0  0  0  0
 10 22  1  0  0  0  0
 11 23  1  0  0  0  0
M  END
