
 OpenBabel03132514253D

 39 39  0  0  0  0  0  0  0  0999 V2000
    0.9627   -0.0136    0.0918 C   0  0  0  0  0  0  0  0  0  0  0  0
    0.4560    1.1645   -0.7241 C   0  0  0  0  0  0  0  0  0  0  0  0
   -0.4178    0.9242   -1.9443 C   0  0  0  0  0  0  0  0  0  0  0  0
   -0.8713    1.9787   -2.6745 C   0  0  0  0  0  0  0  0  0  0  0  0
   -1.7452    1.7384   -3.8948 C   0  0  0  0  0  0  0  0  0  0  0  0
   -1.1213    1.9126   -5.1584 O   0  0  0  0  0  0  0  0  0  0  0  0
   -2.1307    0.3201   -3.8787 C   0  0  0  0  0  0  0  0  0  0  0  0
   -1.0762   -0.7744   -3.9042 C   0  0  0  0  0  0  0  0  0  0  0  0
   -3.4601    0.0105   -3.8402 C   0  0  0  0  0  0  0  0  0  0  0  0
   -4.3834    1.0171   -3.8297 C   0  0  0  0  0  0  0  0  0  0  0  0
   -5.6204    0.7264   -3.8053 O   0  0  0  0  0  0  0  0  0  0  0  0
   -4.0115    2.3072   -3.8447 C   0  0  0  0  0  0  0  0  0  0  0  0
   -2.7185    2.6736   -3.8766 C   0  0  0  0  0  0  0  0  0  0  0  0
   -2.5825    3.3385   -5.2367 C   0  0  0  0  0  0  0  0  0  0  0  0
   -2.4772    3.5311   -2.6450 C   0  0  0  0  0  0  0  0  0  0  0  0
    0.7847    2.4341   -0.3622 C   0  0  0  0  0  0  0  0  0  0  0  0
    1.6586    2.6744    0.8581 C   0  0  0  0  0  0  0  0  0  0  0  0
    1.9656    3.8604    1.1962 O   0  0  0  0  0  0  0  0  0  0  0  0
    2.1319    1.5737    1.6203 O   0  0  0  0  0  0  0  0  0  0  0  0
    0.6060   -0.9257   -0.3393 H   0  0  0  0  0  0  0  0  0  0  0  0
    0.6060    0.0691    1.0972 H   0  0  0  0  0  0  0  0  0  0  0  0
    2.0327   -0.0136    0.0918 H   0  0  0  0  0  0  0  0  0  0  0  0
   -0.6763   -0.0743   -2.2290 H   0  0  0  0  0  0  0  0  0  0  0  0
   -0.6128    2.9772   -2.3899 H   0  0  0  0  0  0  0  0  0  0  0  0
   -1.7836    1.7302   -5.8851 H   0  0  0  0  0  0  0  0  0  0  0  0
   -1.1673   -1.3780   -3.0254 H   0  0  0  0  0  0  0  0  0  0  0  0
   -1.2162   -1.3845   -4.7720 H   0  0  0  0  0  0  0  0  0  0  0  0
   -0.1027   -0.3311   -3.9331 H   0  0  0  0  0  0  0  0  0  0  0  0
   -3.7758   -1.0117   -3.8185 H   0  0  0  0  0  0  0  0  0  0  0  0
   -4.3169    2.6413   -2.8751 H   0  0  0  0  0  0  0  0  0  0  0  0
   -4.4676    2.7408   -4.7101 H   0  0  0  0  0  0  0  0  0  0  0  0
   -3.2840    4.1430   -5.3121 H   0  0  0  0  0  0  0  0  0  0  0  0
   -1.5892    3.7198   -5.3496 H   0  0  0  0  0  0  0  0  0  0  0  0
   -2.7787    2.6209   -6.0058 H   0  0  0  0  0  0  0  0  0  0  0  0
   -2.5219    2.9180   -1.7692 H   0  0  0  0  0  0  0  0  0  0  0  0
   -1.5118    3.9876   -2.7119 H   0  0  0  0  0  0  0  0  0  0  0  0
   -3.2280    4.2912   -2.5870 H   0  0  0  0  0  0  0  0  0  0  0  0
    0.4280    3.2634   -0.9365 H   0  0  0  0  0  0  0  0  0  0  0  0
    2.7068    1.7318    2.4231 H   0  0  0  0  0  0  0  0  0  0  0  0
  1  2  1  0  0  0  0
  1 20  1  0  0  0  0
  1 21  1  0  0  0  0
  1 22  1  0  0  0  0
  2  3  1  0  0  0  0
  2 16  2  0  0  0  0
  3  4  2  0  0  0  0
  3 23  1  0  0  0  0
  4  5  1  0  0  0  0
  4 24  1  0  0  0  0
  5  6  1  0  0  0  0
  5  7  1  0  0  0  0
  5 13  1  0  0  0  0
  6 25  1  0  0  0  0
  7  8  1  0  0  0  0
  7  9  2  0  0  0  0
  8 26  1  0  0  0  0
  8 27  1  0  0  0  0
  8 28  1  0  0  0  0
  9 10  1  0  0  0  0
  9 29  1  0  0  0  0
 10 11  2  0  0  0  0
 10 12  1  0  0  0  0
 12 13  1  0  0  0  0
 12 30  1  0  0  0  0
 12 31  1  0  0  0  0
 13 14  1  0  0  0  0
 13 15  1  0  0  0  0
 14 32  1  0  0  0  0
 14 33  1  0  0  0  0
 14 34  1  0  0  0  0
 15 35  1  0  0  0  0
 15 36  1  0  0  0  0
 15 37  1  0  0  0  0
 16 17  1  0  0  0  0
 16 38  1  0  0  0  0
 17 18  2  0  0  0  0
 17 19  1  0  0  0  0
 19 39  1  0  0  0  0
M  END
