
 OpenBabel03132514253D

 52 51  0  0  0  0  0  0  0  0999 V2000
    0.9253   -0.0661    0.0071 C   0  0  0  0  0  0  0  0  0  0  0  0
    0.4186   -1.2493   -0.8013 C   0  0  0  0  0  0  0  0  0  0  0  0
    0.9253   -2.5411   -0.1807 C   0  0  0  0  0  0  0  0  0  0  0  0
    0.4186   -2.6496    1.2482 C   0  0  0  0  0  0  0  0  0  0  0  0
   -1.1014   -2.6496    1.2482 C   0  0  0  0  0  0  0  0  0  0  0  0
   -1.6081   -3.8328    0.4398 C   0  0  0  0  0  0  0  0  0  0  0  0
   -2.3902   -4.7758    1.0313 C   0  0  0  0  0  0  0  0  0  0  0  0
   -2.8969   -5.9591    0.2228 C   0  0  0  0  0  0  0  0  0  0  0  0
   -2.3902   -7.2508    0.8434 C   0  0  0  0  0  0  0  0  0  0  0  0
   -3.2742   -8.1829    1.2911 C   0  0  0  0  0  0  0  0  0  0  0  0
   -2.7676   -9.4746    1.9117 C   0  0  0  0  0  0  0  0  0  0  0  0
   -3.2742   -9.5831    3.3406 C   0  0  0  0  0  0  0  0  0  0  0  0
   -4.7942   -9.5831    3.3406 C   0  0  0  0  0  0  0  0  0  0  0  0
   -5.3009  -10.7664    2.5322 C   0  0  0  0  0  0  0  0  0  0  0  0
   -4.7943  -12.0581    3.1527 C   0  0  0  0  0  0  0  0  0  0  0  0
   -5.3009  -12.1666    4.5817 C   0  0  0  0  0  0  0  0  0  0  0  0
   -6.8209  -12.1666    4.5817 C   0  0  0  0  0  0  0  0  0  0  0  0
   -7.3276  -13.3499    3.7733 C   0  0  0  0  0  0  0  0  0  0  0  0
   -8.0583  -14.2308    4.3258 O   0  0  0  0  0  0  0  0  0  0  0  0
   -6.9846  -13.4710    2.4007 O   0  0  0  0  0  0  0  0  0  0  0  0
    0.5686   -0.1424    1.0130 H   0  0  0  0  0  0  0  0  0  0  0  0
    0.5686    0.8433   -0.4297 H   0  0  0  0  0  0  0  0  0  0  0  0
    1.9953   -0.0661    0.0071 H   0  0  0  0  0  0  0  0  0  0  0  0
   -0.6514   -1.2493   -0.8013 H   0  0  0  0  0  0  0  0  0  0  0  0
    0.7753   -1.1730   -1.8072 H   0  0  0  0  0  0  0  0  0  0  0  0
    0.5686   -3.3741   -0.7498 H   0  0  0  0  0  0  0  0  0  0  0  0
    1.9953   -2.5411   -0.1807 H   0  0  0  0  0  0  0  0  0  0  0  0
    0.7753   -3.5589    1.6850 H   0  0  0  0  0  0  0  0  0  0  0  0
    0.7753   -1.8166    1.8173 H   0  0  0  0  0  0  0  0  0  0  0  0
   -1.4581   -2.7259    2.2541 H   0  0  0  0  0  0  0  0  0  0  0  0
   -1.4581   -1.7402    0.8114 H   0  0  0  0  0  0  0  0  0  0  0  0
   -1.3496   -3.9241   -0.5945 H   0  0  0  0  0  0  0  0  0  0  0  0
   -2.6487   -4.6845    2.0655 H   0  0  0  0  0  0  0  0  0  0  0  0
   -3.9669   -5.9591    0.2228 H   0  0  0  0  0  0  0  0  0  0  0  0
   -2.5402   -5.8827   -0.7831 H   0  0  0  0  0  0  0  0  0  0  0  0
   -1.3382   -7.4271    0.9280 H   0  0  0  0  0  0  0  0  0  0  0  0
   -4.3262   -8.0066    1.2065 H   0  0  0  0  0  0  0  0  0  0  0  0
   -3.1242  -10.3076    1.3426 H   0  0  0  0  0  0  0  0  0  0  0  0
   -1.6976   -9.4746    1.9117 H   0  0  0  0  0  0  0  0  0  0  0  0
   -2.9176  -10.4924    3.7774 H   0  0  0  0  0  0  0  0  0  0  0  0
   -2.9176   -8.7501    3.9097 H   0  0  0  0  0  0  0  0  0  0  0  0
   -5.1509   -9.6595    4.3465 H   0  0  0  0  0  0  0  0  0  0  0  0
   -5.1509   -8.6738    2.9038 H   0  0  0  0  0  0  0  0  0  0  0  0
   -6.3709  -10.7664    2.5322 H   0  0  0  0  0  0  0  0  0  0  0  0
   -4.9443  -10.6900    1.5263 H   0  0  0  0  0  0  0  0  0  0  0  0
   -5.1509  -12.8911    2.5837 H   0  0  0  0  0  0  0  0  0  0  0  0
   -3.7243  -12.0581    3.1527 H   0  0  0  0  0  0  0  0  0  0  0  0
   -4.9443  -13.0759    5.0185 H   0  0  0  0  0  0  0  0  0  0  0  0
   -4.9443  -11.3336    5.1508 H   0  0  0  0  0  0  0  0  0  0  0  0
   -7.1776  -12.2430    5.5876 H   0  0  0  0  0  0  0  0  0  0  0  0
   -7.1776  -11.2573    4.1449 H   0  0  0  0  0  0  0  0  0  0  0  0
   -7.3179  -14.2495    1.8688 H   0  0  0  0  0  0  0  0  0  0  0  0
  1  2  1  0  0  0  0
  1 21  1  0  0  0  0
  1 22  1  0  0  0  0
  1 23  1  0  0  0  0
  2  3  1  0  0  0  0
  2 24  1  0  0  0  0
  2 25  1  0  0  0  0
  3  4  1  0  0  0  0
  3 26  1  0  0  0  0
  3 27  1  0  0  0  0
  4  5  1  0  0  0  0
  4 28  1  0  0  0  0
  4 29  1  0  0  0  0
  5  6  1  0  0  0  0
  5 30  1  0  0  0  0
  5 31  1  0  0  0  0
  6  7  2  0  0  0  0
  6 32  1  0  0  0  0
  7  8  1  0  0  0  0
  7 33  1  0  0  0  0
  8  9  1  0  0  0  0
  8 34  1  0  0  0  0
  8 35  1  0  0  0  0
  9 10  2  0  0  0  0
  9 36  1  0  0  0  0
 10 11  1  0  0  0  0
 10 37  1  0  0  0  0
 11 12  1  0  0  0  0
 11 38  1  0  0  0  0
 11 39  1  0  0  0  0
 12 13  1  0  0  0  0
 12 40  1  0  0  0  0
 12 41  1  0  0  0  0
 13 14  1  0  0  0  0
 13 42  1  0  0  0  0
 13 43  1  0  0  0  0
 14 15  1  0  0  0  0
 14 44  1  0  0  0  0
 14 45  1  0  0  0  0
 15 16  1  0  0  0  0
 15 46  1  0  0  0  0
 15 47  1  0  0  0  0
 16 17  1  0  0  0  0
 16 48  1  0  0  0  0
 16 49  1  0  0  0  0
 17 18  1  0  0  0  0
 17 50  1  0  0  0  0
 17 51  1  0  0  0  0
 18 19  2  0  0  0  0
 18 20  1  0  0  0  0
 20 52  1  0  0  0  0
M  END
