
 OpenBabel03132514253D

 39 42  0  0  0  0  0  0  0  0999 V2000
    1.0511    0.0843    0.0169 O   0  0  0  0  0  0  0  0  0  0  0  0
    2.3220    0.0843    0.0169 C   0  0  0  0  0  0  0  0  0  0  0  0
    3.0570    0.5161    1.2145 N   0  0  0  0  0  0  0  0  0  0  0  0
    4.5270    0.5161    1.2145 C   0  0  0  0  0  0  0  0  0  0  0  0
    5.2088    1.0153    0.1523 N   0  0  0  0  0  0  0  0  0  0  0  0
    6.5499    1.0444    0.1619 C   0  0  0  0  0  0  0  0  0  0  0  0
    7.2513    0.5035    1.1635 N   0  0  0  0  0  0  0  0  0  0  0  0
    6.6197    0.0131    2.2560 C   0  0  0  0  0  0  0  0  0  0  0  0
    7.1300   -0.5239    3.4408 O   0  0  0  0  0  0  0  0  0  0  0  0
    6.0782   -0.9197    4.2365 C   0  0  0  0  0  0  0  0  0  0  0  0
    6.1759   -1.5753    5.6044 C   0  0  0  0  0  0  0  0  0  0  0  0
    6.8115   -0.9113    6.6565 C   0  0  0  0  0  0  0  0  0  0  0  0
    6.7890   -1.5157    7.9071 C   0  0  0  0  0  0  0  0  0  0  0  0
    6.1454   -2.7228    8.0560 C   0  0  0  0  0  0  0  0  0  0  0  0
    5.5542   -3.3728    7.0487 N   0  0  0  0  0  0  0  0  0  0  0  0
    5.5743   -2.7964    5.8367 C   0  0  0  0  0  0  0  0  0  0  0  0
    4.8868   -0.5997    3.5376 C   0  0  0  0  0  0  0  0  0  0  0  0
    5.2383   -0.0037    2.3231 C   0  0  0  0  0  0  0  0  0  0  0  0
    3.0820   -0.3622   -1.2214 C   0  0  0  0  0  0  0  0  0  0  0  0
    2.5777   -1.7613   -1.6859 C   0  0  0  0  0  0  0  0  0  0  0  0
    3.0104   -1.8453   -3.1573 C   0  0  0  0  0  0  0  0  0  0  0  0
    2.9589   -0.3495   -3.6857 C   0  0  0  0  0  0  0  0  0  0  0  0
    2.6918    0.5083   -2.4336 C   0  0  0  0  0  0  0  0  0  0  0  0
    2.5470    0.8157    2.0455 H   0  0  0  0  0  0  0  0  0  0  0  0
    7.0693    1.5104   -0.6493 H   0  0  0  0  0  0  0  0  0  0  0  0
    7.2984    0.0293    6.5044 H   0  0  0  0  0  0  0  0  0  0  0  0
    7.2658   -1.0488    8.7435 H   0  0  0  0  0  0  0  0  0  0  0  0
    6.1166   -3.1647    9.0301 H   0  0  0  0  0  0  0  0  0  0  0  0
    5.1059   -3.3028    5.0187 H   0  0  0  0  0  0  0  0  0  0  0  0
    3.8900   -0.7829    3.8809 H   0  0  0  0  0  0  0  0  0  0  0  0
    4.1194   -0.3238   -0.9620 H   0  0  0  0  0  0  0  0  0  0  0  0
    2.9761   -2.5589   -1.0943 H   0  0  0  0  0  0  0  0  0  0  0  0
    1.5135   -1.8299   -1.5984 H   0  0  0  0  0  0  0  0  0  0  0  0
    2.3783   -2.4948   -3.7261 H   0  0  0  0  0  0  0  0  0  0  0  0
    4.0026   -2.2380   -3.2359 H   0  0  0  0  0  0  0  0  0  0  0  0
    2.2057   -0.2137   -4.4334 H   0  0  0  0  0  0  0  0  0  0  0  0
    3.8908   -0.0776   -4.1358 H   0  0  0  0  0  0  0  0  0  0  0  0
    1.6670    0.8115   -2.3811 H   0  0  0  0  0  0  0  0  0  0  0  0
    3.2878    1.3966   -2.4590 H   0  0  0  0  0  0  0  0  0  0  0  0
  1  2  2  0  0  0  0
  2  3  1  0  0  0  0
  2 19  1  0  0  0  0
  3  4  1  0  0  0  0
  3 24  1  0  0  0  0
  4  5  1  0  0  0  0
  4 18  2  0  0  0  0
  5  6  2  0  0  0  0
  6  7  1  0  0  0  0
  6 25  1  0  0  0  0
  7  8  2  0  0  0  0
  8  9  1  0  0  0  0
  8 18  1  0  0  0  0
  9 10  1  0  0  0  0
 10 11  1  0  0  0  0
 10 17  2  0  0  0  0
 11 12  1  0  0  0  0
 11 16  2  0  0  0  0
 12 13  2  0  0  0  0
 12 26  1  0  0  0  0
 13 14  1  0  0  0  0
 13 27  1  0  0  0  0
 14 15  2  0  0  0  0
 14 28  1  0  0  0  0
 15 16  1  0  0  0  0
 16 29  1  0  0  0  0
 17 18  1  0  0  0  0
 17 30  1  0  0  0  0
 19 20  1  0  0  0  0
 19 23  1  0  0  0  0
 19 31  1  0  0  0  0
 20 21  1  0  0  0  0
 20 32  1  0  0  0  0
 20 33  1  0  0  0  0
 21 22  1  0  0  0  0
 21 34  1  0  0  0  0
 21 35  1  0  0  0  0
 22 23  1  0  0  0  0
 22 36  1  0  0  0  0
 22 37  1  0  0  0  0
 23 38  1  0  0  0  0
 23 39  1  0  0  0  0
M  END
