
 OpenBabel03132514253D

 78 83  0  0  0  0  0  0  0  0999 V2000
    1.0720   -0.0459   -0.0520 C   0  0  0  0  0  0  0  0  0  0  0  0
    0.5987    1.1769   -0.5971 O   0  0  0  0  0  0  0  0  0  0  0  0
    0.9417    2.4091    0.0196 C   0  0  0  0  0  0  0  0  0  0  0  0
   -0.1046    3.2657    0.3097 C   0  0  0  0  0  0  0  0  0  0  0  0
    0.1324    4.4254    1.0444 C   0  0  0  0  0  0  0  0  0  0  0  0
   -1.0185    5.3619    1.3744 C   0  0  0  0  0  0  0  0  0  0  0  0
   -1.0126    6.6862    0.9418 C   0  0  0  0  0  0  0  0  0  0  0  0
   -2.0789    7.5328    1.2555 C   0  0  0  0  0  0  0  0  0  0  0  0
   -3.1308    7.0542    2.0063 C   0  0  0  0  0  0  0  0  0  0  0  0
   -3.1672    5.7181    2.4321 C   0  0  0  0  0  0  0  0  0  0  0  0
   -2.0889    4.8822    2.1072 C   0  0  0  0  0  0  0  0  0  0  0  0
   -4.2096    5.2523    3.1488 N   0  0  0  0  0  0  0  0  0  0  0  0
   -4.2250    3.8532    3.5995 C   0  0  0  0  0  0  0  0  0  0  0  0
   -5.2379    3.0093    3.1816 C   0  0  0  0  0  0  0  0  0  0  0  0
   -5.2407    1.6762    3.5865 C   0  0  0  0  0  0  0  0  0  0  0  0
   -4.2299    1.1933    4.4216 C   0  0  0  0  0  0  0  0  0  0  0  0
   -4.2254   -0.2646    4.8518 C   0  0  0  0  0  0  0  0  0  0  0  0
   -5.5049   -0.5724    5.6125 C   0  0  0  0  0  0  0  0  0  0  0  0
   -4.1397   -1.1552    3.6230 C   0  0  0  0  0  0  0  0  0  0  0  0
   -3.0270   -0.5241    5.7501 C   0  0  0  0  0  0  0  0  0  0  0  0
   -2.2227    0.4207    6.0252 O   0  0  0  0  0  0  0  0  0  0  0  0
   -2.7984   -1.8678    6.3007 N   0  0  0  0  0  0  0  0  0  0  0  0
   -2.9280   -2.9212    5.4696 C   0  0  0  0  0  0  0  0  0  0  0  0
   -2.8373   -4.2339    5.9552 C   0  0  0  0  0  0  0  0  0  0  0  0
   -2.9675   -5.3140    5.1013 C   0  0  0  0  0  0  0  0  0  0  0  0
   -3.2034   -5.1007    3.7449 C   0  0  0  0  0  0  0  0  0  0  0  0
   -3.3536   -6.2478    2.8380 N   0  0  0  0  0  0  0  0  0  0  0  0
   -2.4955   -6.5296    1.6727 C   0  0  0  0  0  0  0  0  0  0  0  0
   -3.3516   -6.6228    0.4296 C   0  0  0  0  0  0  0  0  0  0  0  0
   -4.3534   -7.6297    0.5723 O   0  0  0  0  0  0  0  0  0  0  0  0
   -5.1966   -7.3228    1.6829 C   0  0  0  0  0  0  0  0  0  0  0  0
   -4.4039   -7.2769    2.9755 C   0  0  0  0  0  0  0  0  0  0  0  0
   -3.2976   -3.7997    3.2439 C   0  0  0  0  0  0  0  0  0  0  0  0
   -3.1431   -2.7284    4.0970 C   0  0  0  0  0  0  0  0  0  0  0  0
   -3.2370    2.0461    4.8530 C   0  0  0  0  0  0  0  0  0  0  0  0
   -3.2030    3.3858    4.4385 C   0  0  0  0  0  0  0  0  0  0  0  0
   -2.2169    4.2083    4.8487 N   0  0  0  0  0  0  0  0  0  0  0  0
   -4.2699    7.9891    2.3790 C   0  0  0  0  0  0  0  0  0  0  0  0
   -5.2449    7.5583    3.0710 O   0  0  0  0  0  0  0  0  0  0  0  0
    1.4249    4.7304    1.4789 C   0  0  0  0  0  0  0  0  0  0  0  0
    2.4664    3.8840    1.1655 C   0  0  0  0  0  0  0  0  0  0  0  0
    2.2456    2.6998    0.4467 C   0  0  0  0  0  0  0  0  0  0  0  0
    3.2666    1.8669    0.1620 N   0  0  0  0  0  0  0  0  0  0  0  0
    0.7154   -0.8623   -0.6446 H   0  0  0  0  0  0  0  0  0  0  0  0
    0.7154   -0.1509    0.9513 H   0  0  0  0  0  0  0  0  0  0  0  0
    2.1420   -0.0459   -0.0520 H   0  0  0  0  0  0  0  0  0  0  0  0
   -1.0937    3.0383   -0.0292 H   0  0  0  0  0  0  0  0  0  0  0  0
   -0.1889    7.0560    0.3675 H   0  0  0  0  0  0  0  0  0  0  0  0
   -2.0788    8.5471    0.9147 H   0  0  0  0  0  0  0  0  0  0  0  0
   -2.0943    3.8621    2.4299 H   0  0  0  0  0  0  0  0  0  0  0  0
   -4.9876    5.8707    3.3783 H   0  0  0  0  0  0  0  0  0  0  0  0
   -6.0175    3.3792    2.5489 H   0  0  0  0  0  0  0  0  0  0  0  0
   -6.0192    1.0203    3.2571 H   0  0  0  0  0  0  0  0  0  0  0  0
   -6.3484   -0.3897    4.9801 H   0  0  0  0  0  0  0  0  0  0  0  0
   -5.5017   -1.5986    5.9153 H   0  0  0  0  0  0  0  0  0  0  0  0
   -5.5651    0.0546    6.4775 H   0  0  0  0  0  0  0  0  0  0  0  0
   -3.2391   -0.9385    3.0876 H   0  0  0  0  0  0  0  0  0  0  0  0
   -4.1366   -2.1814    3.9259 H   0  0  0  0  0  0  0  0  0  0  0  0
   -4.9833   -0.9725    2.9907 H   0  0  0  0  0  0  0  0  0  0  0  0
   -2.5493   -1.9989    7.2811 H   0  0  0  0  0  0  0  0  0  0  0  0
   -2.6653   -4.4015    6.9979 H   0  0  0  0  0  0  0  0  0  0  0  0
   -2.8873   -6.3109    5.4815 H   0  0  0  0  0  0  0  0  0  0  0  0
   -1.9814   -7.4559    1.8230 H   0  0  0  0  0  0  0  0  0  0  0  0
   -1.7814   -5.7414    1.5561 H   0  0  0  0  0  0  0  0  0  0  0  0
   -3.8350   -5.6804    0.2774 H   0  0  0  0  0  0  0  0  0  0  0  0
   -2.7293   -6.8645   -0.4065 H   0  0  0  0  0  0  0  0  0  0  0  0
   -5.9391   -8.0886    1.7671 H   0  0  0  0  0  0  0  0  0  0  0  0
   -5.6552   -6.3698    1.5204 H   0  0  0  0  0  0  0  0  0  0  0  0
   -3.9620   -8.2314    3.1716 H   0  0  0  0  0  0  0  0  0  0  0  0
   -5.0522   -7.0259    3.7890 H   0  0  0  0  0  0  0  0  0  0  0  0
   -3.4887   -3.6362    2.2039 H   0  0  0  0  0  0  0  0  0  0  0  0
   -3.1880   -1.7334    3.7059 H   0  0  0  0  0  0  0  0  0  0  0  0
   -2.4799    1.6805    5.5148 H   0  0  0  0  0  0  0  0  0  0  0  0
   -1.4795    3.8558    5.4589 H   0  0  0  0  0  0  0  0  0  0  0  0
    1.6051    5.6160    2.0516 H   0  0  0  0  0  0  0  0  0  0  0  0
    3.4595    4.1342    1.4755 H   0  0  0  0  0  0  0  0  0  0  0  0
    3.0956    1.0137   -0.3700 H   0  0  0  0  0  0  0  0  0  0  0  0
    4.2103    2.0900    0.4786 H   0  0  0  0  0  0  0  0  0  0  0  0
  1  2  1  0  0  0  0
  1 44  1  0  0  0  0
  1 45  1  0  0  0  0
  1 46  1  0  0  0  0
  2  3  1  0  0  0  0
  3  4  1  0  0  0  0
  3 42  2  0  0  0  0
  4  5  2  0  0  0  0
  4 47  1  0  0  0  0
  5  6  1  0  0  0  0
  5 40  1  0  0  0  0
  6  7  1  0  0  0  0
  6 11  2  0  0  0  0
  7  8  2  0  0  0  0
  7 48  1  0  0  0  0
  8  9  1  0  0  0  0
  8 49  1  0  0  0  0
  9 10  2  0  0  0  0
  9 38  1  0  0  0  0
 10 11  1  0  0  0  0
 10 12  1  0  0  0  0
 11 50  1  0  0  0  0
 12 13  1  0  0  0  0
 12 51  1  0  0  0  0
 13 14  1  0  0  0  0
 13 36  2  0  0  0  0
 14 15  2  0  0  0  0
 14 52  1  0  0  0  0
 15 16  1  0  0  0  0
 15 53  1  0  0  0  0
 16 17  1  0  0  0  0
 16 35  2  0  0  0  0
 17 18  1  0  0  0  0
 17 19  1  0  0  0  0
 17 20  1  0  0  0  0
 18 54  1  0  0  0  0
 18 55  1  0  0  0  0
 18 56  1  0  0  0  0
 19 57  1  0  0  0  0
 19 58  1  0  0  0  0
 19 59  1  0  0  0  0
 20 21  2  0  0  0  0
 20 22  1  0  0  0  0
 22 23  1  0  0  0  0
 22 60  1  0  0  0  0
 23 24  1  0  0  0  0
 23 34  2  0  0  0  0
 24 25  2  0  0  0  0
 24 61  1  0  0  0  0
 25 26  1  0  0  0  0
 25 62  1  0  0  0  0
 26 27  1  0  0  0  0
 26 33  2  0  0  0  0
 27 28  1  0  0  0  0
 27 32  1  0  0  0  0
 28 29  1  0  0  0  0
 28 63  1  0  0  0  0
 28 64  1  0  0  0  0
 29 30  1  0  0  0  0
 29 65  1  0  0  0  0
 29 66  1  0  0  0  0
 30 31  1  0  0  0  0
 31 32  1  0  0  0  0
 31 67  1  0  0  0  0
 31 68  1  0  0  0  0
 32 69  1  0  0  0  0
 32 70  1  0  0  0  0
 33 34  1  0  0  0  0
 33 71  1  0  0  0  0
 34 72  1  0  0  0  0
 35 36  1  0  0  0  0
 35 73  1  0  0  0  0
 36 37  1  0  0  0  0
 37 38  1  0  0  0  0
 37 74  1  0  0  0  0
 38 39  2  0  0  0  0
 40 41  2  0  0  0  0
 40 75  1  0  0  0  0
 41 42  1  0  0  0  0
 41 76  1  0  0  0  0
 42 43  1  0  0  0  0
 43 77  1  0  0  0  0
 43 78  1  0  0  0  0
M  END
