
 OpenBabel03132514253D

 62 66  0  0  0  0  0  0  0  0999 V2000
    0.9411   -0.0802   -0.0097 C   0  0  0  0  0  0  0  0  0  0  0  0
    0.4345   -0.7925   -1.2532 C   0  0  0  0  0  0  0  0  0  0  0  0
    0.9411   -2.2256   -1.2581 C   0  0  0  0  0  0  0  0  0  0  0  0
   -1.0355   -0.7925   -1.2532 N   0  0  0  0  0  0  0  0  0  0  0  0
   -1.7705   -0.1523   -2.3535 C   0  0  0  0  0  0  0  0  0  0  0  0
   -3.0414   -0.1523   -2.3535 O   0  0  0  0  0  0  0  0  0  0  0  0
   -1.0105    0.5098   -3.4913 C   0  0  0  0  0  0  0  0  0  0  0  0
    0.0567   -0.0971   -4.0819 C   0  0  0  0  0  0  0  0  0  0  0  0
    0.6305    0.4651   -5.1544 C   0  0  0  0  0  0  0  0  0  0  0  0
    0.1695    1.6398   -5.6829 C   0  0  0  0  0  0  0  0  0  0  0  0
    0.8304    2.1584   -6.7986 N   0  0  0  0  0  0  0  0  0  0  0  0
    0.4319    3.3180   -7.3692 C   0  0  0  0  0  0  0  0  0  0  0  0
    1.1483    3.8308   -8.5459 N   0  0  0  0  0  0  0  0  0  0  0  0
    0.7235    5.0902   -9.1738 C   0  0  0  0  0  0  0  0  0  0  0  0
    0.6881    6.4399   -8.4723 C   0  0  0  0  0  0  0  0  0  0  0  0
   -0.1729    6.4105   -7.2102 C   0  0  0  0  0  0  0  0  0  0  0  0
   -1.5807    5.9536   -7.5955 C   0  0  0  0  0  0  0  0  0  0  0  0
   -2.4535    5.8104   -6.4715 O   0  0  0  0  0  0  0  0  0  0  0  0
   -1.5451    4.6022   -8.2710 C   0  0  0  0  0  0  0  0  0  0  0  0
   -0.6678    4.5966   -9.5124 C   0  0  0  0  0  0  0  0  0  0  0  0
   -0.6543    4.0371   -6.8540 C   0  0  0  0  0  0  0  0  0  0  0  0
   -1.1780    5.1918   -7.2922 N   0  0  0  0  0  0  0  0  0  0  0  0
   -2.1851    5.5282   -6.5310 C   0  0  0  0  0  0  0  0  0  0  0  0
   -2.3560    4.5649   -5.5346 C   0  0  0  0  0  0  0  0  0  0  0  0
   -1.3826    3.5843   -5.7125 N   0  0  0  0  0  0  0  0  0  0  0  0
   -0.9414    2.3227   -5.0997 C   0  0  0  0  0  0  0  0  0  0  0  0
   -1.5202    1.7150   -3.9868 C   0  0  0  0  0  0  0  0  0  0  0  0
    0.9411   -0.0718   -2.4918 C   0  0  0  0  0  0  0  0  0  0  0  0
    0.9743    1.3504   -2.5140 C   0  0  0  0  0  0  0  0  0  0  0  0
    0.9879    2.0201   -3.7485 C   0  0  0  0  0  0  0  0  0  0  0  0
    1.2433    1.3639   -4.8420 C   0  0  0  0  0  0  0  0  0  0  0  0
    1.5156   -0.0097   -4.7895 C   0  0  0  0  0  0  0  0  0  0  0  0
    1.2091   -0.7395   -3.6153 C   0  0  0  0  0  0  0  0  0  0  0  0
    0.5845   -0.5876    0.8622 H   0  0  0  0  0  0  0  0  0  0  0  0
    0.5845    0.9286   -0.0062 H   0  0  0  0  0  0  0  0  0  0  0  0
    2.0111   -0.0802   -0.0097 H   0  0  0  0  0  0  0  0  0  0  0  0
    0.5844   -2.7330   -0.3862 H   0  0  0  0  0  0  0  0  0  0  0  0
    0.5844   -2.7270   -2.1334 H   0  0  0  0  0  0  0  0  0  0  0  0
    2.0111   -2.2256   -1.2581 H   0  0  0  0  0  0  0  0  0  0  0  0
   -1.5455   -1.2368   -0.4897 H   0  0  0  0  0  0  0  0  0  0  0  0
    0.4350   -1.0186   -3.6911 H   0  0  0  0  0  0  0  0  0  0  0  0
    1.4707   -0.0169   -5.6090 H   0  0  0  0  0  0  0  0  0  0  0  0
    1.9402    3.3128   -8.9267 H   0  0  0  0  0  0  0  0  0  0  0  0
    1.4382    5.4138   -9.9014 H   0  0  0  0  0  0  0  0  0  0  0  0
    0.2584    7.1504   -9.1473 H   0  0  0  0  0  0  0  0  0  0  0  0
    1.6864    6.7146   -8.2024 H   0  0  0  0  0  0  0  0  0  0  0  0
   -0.2109    7.3845   -6.7688 H   0  0  0  0  0  0  0  0  0  0  0  0
    0.2474    5.7273   -6.5021 H   0  0  0  0  0  0  0  0  0  0  0  0
   -1.9482    6.7196   -8.2459 H   0  0  0  0  0  0  0  0  0  0  0  0
   -2.1047    5.0935   -5.8678 H   0  0  0  0  0  0  0  0  0  0  0  0
   -1.1311    3.9015   -7.5763 H   0  0  0  0  0  0  0  0  0  0  0  0
   -2.5415    4.3331   -8.5534 H   0  0  0  0  0  0  0  0  0  0  0  0
   -1.0986    5.2451  -10.2464 H   0  0  0  0  0  0  0  0  0  0  0  0
   -0.6052    3.5998   -9.8961 H   0  0  0  0  0  0  0  0  0  0  0  0
   -2.7856    6.4054   -6.6523 H   0  0  0  0  0  0  0  0  0  0  0  0
   -3.1034    4.5777   -4.7689 H   0  0  0  0  0  0  0  0  0  0  0  0
   -2.3603    2.1734   -3.5081 H   0  0  0  0  0  0  0  0  0  0  0  0
    0.9886    1.9046   -1.5988 H   0  0  0  0  0  0  0  0  0  0  0  0
    0.7882    3.0705   -3.7893 H   0  0  0  0  0  0  0  0  0  0  0  0
    1.2454    1.8735   -5.7828 H   0  0  0  0  0  0  0  0  0  0  0  0
    1.9525   -0.5042   -5.6318 H   0  0  0  0  0  0  0  0  0  0  0  0
    1.1927   -1.8093   -3.6289 H   0  0  0  0  0  0  0  0  0  0  0  0
  1  2  1  0  0  0  0
  1 34  1  0  0  0  0
  1 35  1  0  0  0  0
  1 36  1  0  0  0  0
  2  3  1  0  0  0  0
  2  4  1  0  0  0  0
  2 28  1  0  0  0  0
  3 37  1  0  0  0  0
  3 38  1  0  0  0  0
  3 39  1  0  0  0  0
  4  5  1  0  0  0  0
  4 40  1  0  0  0  0
  5  6  2  0  0  0  0
  5  7  1  0  0  0  0
  7  8  1  0  0  0  0
  7 27  2  0  0  0  0
  8  9  2  0  0  0  0
  8 41  1  0  0  0  0
  9 10  1  0  0  0  0
  9 42  1  0  0  0  0
 10 11  1  0  0  0  0
 10 26  2  0  0  0  0
 11 12  2  0  0  0  0
 12 13  1  0  0  0  0
 12 21  1  0  0  0  0
 13 14  1  0  0  0  0
 13 43  1  0  0  0  0
 14 15  1  0  0  0  0
 14 20  1  0  0  0  0
 14 44  1  0  0  0  0
 15 16  1  0  0  0  0
 15 45  1  0  0  0  0
 15 46  1  0  0  0  0
 16 17  1  0  0  0  0
 16 47  1  0  0  0  0
 16 48  1  0  0  0  0
 17 18  1  0  0  0  0
 17 19  1  0  0  0  0
 17 49  1  0  0  0  0
 18 50  1  0  0  0  0
 19 20  1  0  0  0  0
 19 51  1  0  0  0  0
 19 52  1  0  0  0  0
 20 53  1  0  0  0  0
 20 54  1  0  0  0  0
 21 22  2  0  0  0  0
 21 25  1  0  0  0  0
 22 23  1  0  0  0  0
 23 24  2  0  0  0  0
 23 55  1  0  0  0  0
 24 25  1  0  0  0  0
 24 56  1  0  0  0  0
 25 26  1  0  0  0  0
 26 27  1  0  0  0  0
 27 57  1  0  0  0  0
 28 29  1  0  0  0  0
 28 33  2  0  0  0  0
 29 30  2  0  0  0  0
 29 58  1  0  0  0  0
 30 31  1  0  0  0  0
 30 59  1  0  0  0  0
 31 32  2  0  0  0  0
 31 60  1  0  0  0  0
 32 33  1  0  0  0  0
 32 61  1  0  0  0  0
 33 62  1  0  0  0  0
M  END
