
 OpenBabel03132514253D

 71 77  0  0  0  0  0  0  0  0999 V2000
    1.0481   -0.0639   -0.0600 C   0  0  0  0  0  0  0  0  0  0  0  0
    0.4448    0.2754    1.6124 S   0  0  0  0  0  0  0  0  0  0  0  0
    0.9549    1.6435    2.0710 O   0  0  0  0  0  0  0  0  0  0  0  0
   -1.1304    0.2754    1.6124 N   0  0  0  0  0  0  0  0  0  0  0  0
   -1.8654    1.2293    0.7694 C   0  0  0  0  0  0  0  0  0  0  0  0
   -2.8577    1.9436    1.4203 C   0  0  0  0  0  0  0  0  0  0  0  0
   -3.6699    2.7150    0.5557 C   0  0  0  0  0  0  0  0  0  0  0  0
   -3.3446    3.0452   -0.6809 C   0  0  0  0  0  0  0  0  0  0  0  0
   -4.0794    4.1401   -1.4371 C   0  0  0  0  0  0  0  0  0  0  0  0
   -3.9519    5.4094   -0.8975 C   0  0  0  0  0  0  0  0  0  0  0  0
   -4.7995    6.3732   -1.4930 C   0  0  0  0  0  0  0  0  0  0  0  0
   -5.3918    6.2281   -2.6644 C   0  0  0  0  0  0  0  0  0  0  0  0
   -6.0038    7.4067   -3.4039 C   0  0  0  0  0  0  0  0  0  0  0  0
   -5.3127    8.5650   -3.6990 N   0  0  0  0  0  0  0  0  0  0  0  0
   -5.9926    9.6531   -4.2545 C   0  0  0  0  0  0  0  0  0  0  0  0
   -5.5858   10.9923   -4.6769 N   0  0  0  0  0  0  0  0  0  0  0  0
   -6.6393   11.6055   -5.1313 C   0  0  0  0  0  0  0  0  0  0  0  0
   -6.6523   12.9321   -5.6374 O   0  0  0  0  0  0  0  0  0  0  0  0
   -5.4522   13.6904   -5.6725 C   0  0  0  0  0  0  0  0  0  0  0  0
   -4.4778   13.1422   -6.4162 C   0  0  0  0  0  0  0  0  0  0  0  0
   -3.5622   12.4065   -5.5579 O   0  0  0  0  0  0  0  0  0  0  0  0
   -3.7043   13.0102   -4.1476 C   0  0  0  0  0  0  0  0  0  0  0  0
   -2.4929   13.8684   -3.8482 C   0  0  0  0  0  0  0  0  0  0  0  0
   -1.3128   13.2820   -4.3775 O   0  0  0  0  0  0  0  0  0  0  0  0
   -2.7221   15.0886   -4.4070 C   0  0  0  0  0  0  0  0  0  0  0  0
   -4.1472   15.3816   -4.3917 O   0  0  0  0  0  0  0  0  0  0  0  0
   -4.8712   14.0241   -4.3133 C   0  0  0  0  0  0  0  0  0  0  0  0
   -7.7570   10.7695   -5.0493 N   0  0  0  0  0  0  0  0  0  0  0  0
   -7.3723    9.5594   -4.5088 C   0  0  0  0  0  0  0  0  0  0  0  0
   -8.0514    8.3848   -4.2061 C   0  0  0  0  0  0  0  0  0  0  0  0
   -7.3715    7.3173   -3.6640 C   0  0  0  0  0  0  0  0  0  0  0  0
   -8.2445    5.8114   -3.2919 Cl  0  0  0  0  0  0  0  0  0  0  0  0
   -5.4250    4.9606   -3.1762 C   0  0  0  0  0  0  0  0  0  0  0  0
   -4.7288    3.9384   -2.5776 C   0  0  0  0  0  0  0  0  0  0  0  0
   -2.3113    2.3494   -1.2444 C   0  0  0  0  0  0  0  0  0  0  0  0
   -1.5541    1.4800   -0.4969 C   0  0  0  0  0  0  0  0  0  0  0  0
    1.0314   -0.9680    2.7113 N   0  0  0  0  0  0  0  0  0  0  0  0
    2.5014   -0.9679    2.7113 C   0  0  0  0  0  0  0  0  0  0  0  0
    3.1453    0.1768    3.5124 C   0  0  0  0  0  0  0  0  0  0  0  0
    4.2009   -0.8424    3.9703 C   0  0  0  0  0  0  0  0  0  0  0  0
    3.1458   -1.9333    3.7231 C   0  0  0  0  0  0  0  0  0  0  0  0
    0.6914    0.6920   -0.7280 H   0  0  0  0  0  0  0  0  0  0  0  0
    0.6914   -1.0204   -0.3806 H   0  0  0  0  0  0  0  0  0  0  0  0
    2.1181   -0.0639   -0.0600 H   0  0  0  0  0  0  0  0  0  0  0  0
   -2.9974    1.9148    2.4807 H   0  0  0  0  0  0  0  0  0  0  0  0
   -4.6132    3.0542    0.9298 H   0  0  0  0  0  0  0  0  0  0  0  0
   -3.2739    5.6402   -0.1026 H   0  0  0  0  0  0  0  0  0  0  0  0
   -4.9727    7.2830   -0.9570 H   0  0  0  0  0  0  0  0  0  0  0  0
   -5.7836   14.5970   -6.1343 H   0  0  0  0  0  0  0  0  0  0  0  0
   -4.9104   12.4726   -7.1299 H   0  0  0  0  0  0  0  0  0  0  0  0
   -3.9429   13.9151   -6.9276 H   0  0  0  0  0  0  0  0  0  0  0  0
   -3.8332   12.2579   -3.3977 H   0  0  0  0  0  0  0  0  0  0  0  0
   -2.3644   13.9668   -2.7905 H   0  0  0  0  0  0  0  0  0  0  0  0
   -1.4071   13.1787   -5.3676 H   0  0  0  0  0  0  0  0  0  0  0  0
   -2.3750   15.0828   -5.4191 H   0  0  0  0  0  0  0  0  0  0  0  0
   -2.2001   15.8377   -3.8492 H   0  0  0  0  0  0  0  0  0  0  0  0
   -5.6259   14.0161   -3.5549 H   0  0  0  0  0  0  0  0  0  0  0  0
   -8.7031   11.0142   -5.3415 H   0  0  0  0  0  0  0  0  0  0  0  0
   -9.1020    8.3103   -4.3944 H   0  0  0  0  0  0  0  0  0  0  0  0
   -6.0014    4.7619   -4.0555 H   0  0  0  0  0  0  0  0  0  0  0  0
   -4.7099    2.9711   -3.0346 H   0  0  0  0  0  0  0  0  0  0  0  0
   -2.0891    2.4838   -2.2824 H   0  0  0  0  0  0  0  0  0  0  0  0
   -0.7059    1.0006   -0.9392 H   0  0  0  0  0  0  0  0  0  0  0  0
    0.6914   -0.7767    3.6537 H   0  0  0  0  0  0  0  0  0  0  0  0
    2.6474   -1.0729    1.6565 H   0  0  0  0  0  0  0  0  0  0  0  0
    3.4158    1.1057    3.0553 H   0  0  0  0  0  0  0  0  0  0  0  0
    2.5350    0.5727    4.2972 H   0  0  0  0  0  0  0  0  0  0  0  0
    4.7079   -0.7486    4.9079 H   0  0  0  0  0  0  0  0  0  0  0  0
    5.0646   -0.9049    3.3418 H   0  0  0  0  0  0  0  0  0  0  0  0
    2.5867   -2.3726    4.5226 H   0  0  0  0  0  0  0  0  0  0  0  0
    3.5278   -2.8381    3.2984 H   0  0  0  0  0  0  0  0  0  0  0  0
  1  2  1  0  0  0  0
  1 42  1  0  0  0  0
  1 43  1  0  0  0  0
  1 44  1  0  0  0  0
  2  3  2  0  0  0  0
  2  4  2  0  0  0  0
  2 37  1  0  0  0  0
  4  5  1  0  0  0  0
  5  6  1  0  0  0  0
  5 36  2  0  0  0  0
  6  7  2  0  0  0  0
  6 45  1  0  0  0  0
  7  8  1  0  0  0  0
  7 46  1  0  0  0  0
  8  9  1  0  0  0  0
  8 35  2  0  0  0  0
  9 10  1  0  0  0  0
  9 34  2  0  0  0  0
 10 11  2  0  0  0  0
 10 47  1  0  0  0  0
 11 12  1  0  0  0  0
 11 48  1  0  0  0  0
 12 13  1  0  0  0  0
 12 33  2  0  0  0  0
 13 14  1  0  0  0  0
 13 31  2  0  0  0  0
 14 15  2  0  0  0  0
 15 16  1  0  0  0  0
 15 29  1  0  0  0  0
 16 17  2  0  0  0  0
 17 18  1  0  0  0  0
 17 28  1  0  0  0  0
 18 19  1  0  0  0  0
 19 20  1  0  0  0  0
 19 27  1  0  0  0  0
 19 49  1  0  0  0  0
 20 21  1  0  0  0  0
 20 50  1  0  0  0  0
 20 51  1  0  0  0  0
 21 22  1  0  0  0  0
 22 23  1  0  0  0  0
 22 27  1  0  0  0  0
 22 52  1  0  0  0  0
 23 24  1  0  0  0  0
 23 25  1  0  0  0  0
 23 53  1  0  0  0  0
 24 54  1  0  0  0  0
 25 26  1  0  0  0  0
 25 55  1  0  0  0  0
 25 56  1  0  0  0  0
 26 27  1  0  0  0  0
 27 57  1  0  0  0  0
 28 29  1  0  0  0  0
 28 58  1  0  0  0  0
 29 30  2  0  0  0  0
 30 31  1  0  0  0  0
 30 59  1  0  0  0  0
 31 32  1  0  0  0  0
 33 34  1  0  0  0  0
 33 60  1  0  0  0  0
 34 61  1  0  0  0  0
 35 36  1  0  0  0  0
 35 62  1  0  0  0  0
 36 63  1  0  0  0  0
 37 38  1  0  0  0  0
 37 64  1  0  0  0  0
 38 39  1  0  0  0  0
 38 41  1  0  0  0  0
 38 65  1  0  0  0  0
 39 40  1  0  0  0  0
 39 66  1  0  0  0  0
 39 67  1  0  0  0  0
 40 41  1  0  0  0  0
 40 68  1  0  0  0  0
 40 69  1  0  0  0  0
 41 70  1  0  0  0  0
 41 71  1  0  0  0  0
M  END
