
 OpenBabel03132514253D

 34 36  0  0  0  0  0  0  0  0999 V2000
    1.0600   -0.0687   -0.0410 C   0  0  0  0  0  0  0  0  0  0  0  0
    0.5534   -0.7190    1.2360 C   0  0  0  0  0  0  0  0  0  0  0  0
    1.0267    0.0103    2.3587 O   0  0  0  0  0  0  0  0  0  0  0  0
    2.4228    0.1517    2.5763 C   0  0  0  0  0  0  0  0  0  0  0  0
    3.2434    0.4693    1.5515 N   0  0  0  0  0  0  0  0  0  0  0  0
    4.5839    0.6050    1.7292 C   0  0  0  0  0  0  0  0  0  0  0  0
    5.1596    0.4407    2.9411 C   0  0  0  0  0  0  0  0  0  0  0  0
    4.3696    0.1122    4.0444 C   0  0  0  0  0  0  0  0  0  0  0  0
    2.9658   -0.0375    3.8644 C   0  0  0  0  0  0  0  0  0  0  0  0
    2.4672   -0.3463    5.0605 N   0  0  0  0  0  0  0  0  0  0  0  0
    3.4613   -0.3913    5.9353 C   0  0  0  0  0  0  0  0  0  0  0  0
    3.3014   -0.7104    7.4128 C   0  0  0  0  0  0  0  0  0  0  0  0
    2.7726   -2.2351    8.1730 N   0  0  0  0  0  0  0  0  0  0  0  0
    2.9822   -1.7854    9.8341 O   0  0  0  0  0  0  0  0  0  0  0  0
    3.4409   -0.5072    9.7545 N   0  0  0  0  0  0  0  0  0  0  0  0
    3.6187    0.0648    8.5199 C   0  0  0  0  0  0  0  0  0  0  0  0
    4.1230    1.4380    8.3760 N   0  0  0  0  0  0  0  0  0  0  0  0
    4.6077   -0.1208    5.3453 N   0  0  0  0  0  0  0  0  0  0  0  0
    5.9235   -0.0807    5.9995 C   0  0  0  0  0  0  0  0  0  0  0  0
    5.9123    0.9720    7.0959 C   0  0  0  0  0  0  0  0  0  0  0  0
    0.7034    0.9387   -0.0939 H   0  0  0  0  0  0  0  0  0  0  0  0
    0.7034   -0.6183   -0.8869 H   0  0  0  0  0  0  0  0  0  0  0  0
    2.1300   -0.0687   -0.0410 H   0  0  0  0  0  0  0  0  0  0  0  0
   -0.5166   -0.7191    1.2360 H   0  0  0  0  0  0  0  0  0  0  0  0
    0.9100   -1.7265    1.2890 H   0  0  0  0  0  0  0  0  0  0  0  0
    5.1994    0.8480    0.8883 H   0  0  0  0  0  0  0  0  0  0  0  0
    6.2167    0.5620    3.0544 H   0  0  0  0  0  0  0  0  0  0  0  0
    4.3493    1.9878    9.2048 H   0  0  0  0  0  0  0  0  0  0  0  0
    4.2467    1.8412    7.4472 H   0  0  0  0  0  0  0  0  0  0  0  0
    6.1389   -1.0379    6.4263 H   0  0  0  0  0  0  0  0  0  0  0  0
    6.6737    0.1647    5.2771 H   0  0  0  0  0  0  0  0  0  0  0  0
    5.1621    0.7266    7.8183 H   0  0  0  0  0  0  0  0  0  0  0  0
    6.8700    1.0012    7.5722 H   0  0  0  0  0  0  0  0  0  0  0  0
    5.6969    1.9293    6.6691 H   0  0  0  0  0  0  0  0  0  0  0  0
  1  2  1  0  0  0  0
  1 21  1  0  0  0  0
  1 22  1  0  0  0  0
  1 23  1  0  0  0  0
  2  3  1  0  0  0  0
  2 24  1  0  0  0  0
  2 25  1  0  0  0  0
  3  4  1  0  0  0  0
  4  5  1  0  0  0  0
  4  9  2  0  0  0  0
  5  6  2  0  0  0  0
  6  7  1  0  0  0  0
  6 26  1  0  0  0  0
  7  8  2  0  0  0  0
  7 27  1  0  0  0  0
  8  9  1  0  0  0  0
  8 18  1  0  0  0  0
  9 10  1  0  0  0  0
 10 11  2  0  0  0  0
 11 12  1  0  0  0  0
 11 18  1  0  0  0  0
 12 13  2  0  0  0  0
 12 16  1  0  0  0  0
 13 14  1  0  0  0  0
 14 15  1  0  0  0  0
 15 16  2  0  0  0  0
 16 17  1  0  0  0  0
 17 28  1  0  0  0  0
 17 29  1  0  0  0  0
 18 19  1  0  0  0  0
 19 20  1  0  0  0  0
 19 30  1  0  0  0  0
 19 31  1  0  0  0  0
 20 32  1  0  0  0  0
 20 33  1  0  0  0  0
 20 34  1  0  0  0  0
M  END
