
 OpenBabel03132514253D

 66 71  0  0  0  0  0  0  0  0999 V2000
    0.9047    0.0186    0.0238 C   0  0  0  0  0  0  0  0  0  0  0  0
    0.3980   -1.3039   -0.5283 C   0  0  0  0  0  0  0  0  0  0  0  0
    0.8880   -2.4058    0.3124 N   0  0  0  0  0  0  0  0  0  0  0  0
   -0.0673   -3.2941    0.9901 C   0  0  0  0  0  0  0  0  0  0  0  0
    0.1481   -4.7232    0.5194 C   0  0  0  0  0  0  0  0  0  0  0  0
    2.3332   -2.6193    0.4753 C   0  0  0  0  0  0  0  0  0  0  0  0
    2.8453   -3.9029    0.3811 C   0  0  0  0  0  0  0  0  0  0  0  0
    4.1785   -4.0233    0.8396 C   0  0  0  0  0  0  0  0  0  0  0  0
    5.0086   -3.0094    1.0033 C   0  0  0  0  0  0  0  0  0  0  0  0
    6.5055   -3.2180    1.1653 C   0  0  0  0  0  0  0  0  0  0  0  0
    7.2183   -3.8400    0.1536 C   0  0  0  0  0  0  0  0  0  0  0  0
    8.5222   -4.2382    0.5321 C   0  0  0  0  0  0  0  0  0  0  0  0
    9.1703   -3.7756    1.5857 C   0  0  0  0  0  0  0  0  0  0  0  0
   10.6681   -3.9719    1.7544 C   0  0  0  0  0  0  0  0  0  0  0  0
   11.5389   -3.4621    0.8119 N   0  0  0  0  0  0  0  0  0  0  0  0
   12.9153   -3.6512    0.9688 C   0  0  0  0  0  0  0  0  0  0  0  0
   14.0865   -3.2596    0.1863 N   0  0  0  0  0  0  0  0  0  0  0  0
   15.1442   -3.7022    0.8009 C   0  0  0  0  0  0  0  0  0  0  0  0
   16.4794   -3.5229    0.3521 O   0  0  0  0  0  0  0  0  0  0  0  0
   16.7348   -2.8146   -0.8518 C   0  0  0  0  0  0  0  0  0  0  0  0
   16.2727   -1.5554   -0.7885 C   0  0  0  0  0  0  0  0  0  0  0  0
   14.8849   -1.5209   -1.2237 O   0  0  0  0  0  0  0  0  0  0  0  0
   14.6758   -2.7585   -2.1172 C   0  0  0  0  0  0  0  0  0  0  0  0
   14.6116   -2.3222   -3.5661 C   0  0  0  0  0  0  0  0  0  0  0  0
   13.9202   -1.0885   -3.6939 O   0  0  0  0  0  0  0  0  0  0  0  0
   15.8956   -2.2076   -4.0041 C   0  0  0  0  0  0  0  0  0  0  0  0
   16.7422   -3.1709   -3.3169 O   0  0  0  0  0  0  0  0  0  0  0  0
   16.0289   -3.5146   -1.9956 C   0  0  0  0  0  0  0  0  0  0  0  0
   14.7763   -4.3800    1.9671 N   0  0  0  0  0  0  0  0  0  0  0  0
   13.4015   -4.3568    2.0836 C   0  0  0  0  0  0  0  0  0  0  0  0
   12.5097   -4.8620    3.0229 C   0  0  0  0  0  0  0  0  0  0  0  0
   11.1565   -4.6660    2.8616 C   0  0  0  0  0  0  0  0  0  0  0  0
   10.0212   -5.3034    4.0754 Cl  0  0  0  0  0  0  0  0  0  0  0  0
    8.4215   -3.1107    2.5167 C   0  0  0  0  0  0  0  0  0  0  0  0
    7.1051   -2.8005    2.2741 C   0  0  0  0  0  0  0  0  0  0  0  0
    4.4492   -1.7619    1.0192 C   0  0  0  0  0  0  0  0  0  0  0  0
    3.1231   -1.5781    0.7101 C   0  0  0  0  0  0  0  0  0  0  0  0
    0.5480    0.1475    1.0243 H   0  0  0  0  0  0  0  0  0  0  0  0
    0.5480    0.8206   -0.5881 H   0  0  0  0  0  0  0  0  0  0  0  0
    1.9747    0.0186    0.0238 H   0  0  0  0  0  0  0  0  0  0  0  0
   -0.6720   -1.3039   -0.5283 H   0  0  0  0  0  0  0  0  0  0  0  0
    0.7547   -1.4328   -1.5288 H   0  0  0  0  0  0  0  0  0  0  0  0
    0.0843   -3.2403    2.0479 H   0  0  0  0  0  0  0  0  0  0  0  0
   -1.0658   -2.9884    0.7569 H   0  0  0  0  0  0  0  0  0  0  0  0
    1.1466   -5.0289    0.7526 H   0  0  0  0  0  0  0  0  0  0  0  0
   -0.5472   -5.3698    1.0127 H   0  0  0  0  0  0  0  0  0  0  0  0
   -0.0035   -4.7770   -0.5384 H   0  0  0  0  0  0  0  0  0  0  0  0
    2.2836   -4.7285   -0.0034 H   0  0  0  0  0  0  0  0  0  0  0  0
    4.5391   -5.0041    1.0696 H   0  0  0  0  0  0  0  0  0  0  0  0
    6.8191   -4.0044   -0.8254 H   0  0  0  0  0  0  0  0  0  0  0  0
    9.0176   -4.9645   -0.0777 H   0  0  0  0  0  0  0  0  0  0  0  0
   17.7939   -2.7901   -1.0020 H   0  0  0  0  0  0  0  0  0  0  0  0
   16.3370   -1.2043    0.2202 H   0  0  0  0  0  0  0  0  0  0  0  0
   16.8610   -0.9281   -1.4251 H   0  0  0  0  0  0  0  0  0  0  0  0
   13.7994   -3.3089   -1.8456 H   0  0  0  0  0  0  0  0  0  0  0  0
   14.0888   -3.0530   -4.1471 H   0  0  0  0  0  0  0  0  0  0  0  0
   14.3897   -0.3863   -3.1587 H   0  0  0  0  0  0  0  0  0  0  0  0
   16.2501   -1.2189   -3.7999 H   0  0  0  0  0  0  0  0  0  0  0  0
   15.9289   -2.3941   -5.0573 H   0  0  0  0  0  0  0  0  0  0  0  0
   15.9760   -4.5707   -1.8322 H   0  0  0  0  0  0  0  0  0  0  0  0
   15.4196   -4.8202    2.6249 H   0  0  0  0  0  0  0  0  0  0  0  0
   12.8749   -5.4029    3.8708 H   0  0  0  0  0  0  0  0  0  0  0  0
    8.8670   -2.8280    3.4475 H   0  0  0  0  0  0  0  0  0  0  0  0
    6.5582   -2.2171    2.9851 H   0  0  0  0  0  0  0  0  0  0  0  0
    5.0529   -0.9165    1.2760 H   0  0  0  0  0  0  0  0  0  0  0  0
    2.7233   -0.5870    0.6581 H   0  0  0  0  0  0  0  0  0  0  0  0
  1  2  1  0  0  0  0
  1 38  1  0  0  0  0
  1 39  1  0  0  0  0
  1 40  1  0  0  0  0
  2  3  1  0  0  0  0
  2 41  1  0  0  0  0
  2 42  1  0  0  0  0
  3  4  1  0  0  0  0
  3  6  1  0  0  0  0
  4  5  1  0  0  0  0
  4 43  1  0  0  0  0
  4 44  1  0  0  0  0
  5 45  1  0  0  0  0
  5 46  1  0  0  0  0
  5 47  1  0  0  0  0
  6  7  1  0  0  0  0
  6 37  2  0  0  0  0
  7  8  2  0  0  0  0
  7 48  1  0  0  0  0
  8  9  1  0  0  0  0
  8 49  1  0  0  0  0
  9 10  1  0  0  0  0
  9 36  2  0  0  0  0
 10 11  1  0  0  0  0
 10 35  2  0  0  0  0
 11 12  2  0  0  0  0
 11 50  1  0  0  0  0
 12 13  1  0  0  0  0
 12 51  1  0  0  0  0
 13 14  1  0  0  0  0
 13 34  2  0  0  0  0
 14 15  1  0  0  0  0
 14 32  2  0  0  0  0
 15 16  2  0  0  0  0
 16 17  1  0  0  0  0
 16 30  1  0  0  0  0
 17 18  2  0  0  0  0
 18 19  1  0  0  0  0
 18 29  1  0  0  0  0
 19 20  1  0  0  0  0
 20 21  1  0  0  0  0
 20 28  1  0  0  0  0
 20 52  1  0  0  0  0
 21 22  1  0  0  0  0
 21 53  1  0  0  0  0
 21 54  1  0  0  0  0
 22 23  1  0  0  0  0
 23 24  1  0  0  0  0
 23 28  1  0  0  0  0
 23 55  1  0  0  0  0
 24 25  1  0  0  0  0
 24 26  1  0  0  0  0
 24 56  1  0  0  0  0
 25 57  1  0  0  0  0
 26 27  1  0  0  0  0
 26 58  1  0  0  0  0
 26 59  1  0  0  0  0
 27 28  1  0  0  0  0
 28 60  1  0  0  0  0
 29 30  1  0  0  0  0
 29 61  1  0  0  0  0
 30 31  2  0  0  0  0
 31 32  1  0  0  0  0
 31 62  1  0  0  0  0
 32 33  1  0  0  0  0
 34 35  1  0  0  0  0
 34 63  1  0  0  0  0
 35 64  1  0  0  0  0
 36 37  1  0  0  0  0
 36 65  1  0  0  0  0
 37 66  1  0  0  0  0
M  END
