
 OpenBabel03132514253D

 47 49  0  0  0  0  0  0  0  0999 V2000
    1.0313   -0.0167   -0.0935 C   0  0  0  0  0  0  0  0  0  0  0  0
    0.5580    0.2150   -1.4121 O   0  0  0  0  0  0  0  0  0  0  0  0
    0.9011    1.4152   -2.0889 C   0  0  0  0  0  0  0  0  0  0  0  0
   -0.0782    1.9715   -2.8639 C   0  0  0  0  0  0  0  0  0  0  0  0
    0.2044    3.1016   -3.6634 C   0  0  0  0  0  0  0  0  0  0  0  0
   -0.7919    3.6719   -4.4141 N   0  0  0  0  0  0  0  0  0  0  0  0
   -0.4594    4.7105   -5.1302 C   0  0  0  0  0  0  0  0  0  0  0  0
    0.7809    5.2815   -5.2233 N   0  0  0  0  0  0  0  0  0  0  0  0
    1.7463    4.7380   -4.5220 C   0  0  0  0  0  0  0  0  0  0  0  0
    3.1001    5.3038   -4.6121 N   0  0  0  0  0  0  0  0  0  0  0  0
    3.3561    6.4626   -5.4795 C   0  0  0  0  0  0  0  0  0  0  0  0
    4.3783    6.3795   -6.4024 C   0  0  0  0  0  0  0  0  0  0  0  0
    4.7627    7.4852   -7.1499 C   0  0  0  0  0  0  0  0  0  0  0  0
    4.0982    8.6953   -6.9576 C   0  0  0  0  0  0  0  0  0  0  0  0
    3.0737    8.7767   -6.0333 C   0  0  0  0  0  0  0  0  0  0  0  0
    2.2141   10.2627   -5.8168 Cl  0  0  0  0  0  0  0  0  0  0  0  0
    2.7187    7.6641   -5.3048 C   0  0  0  0  0  0  0  0  0  0  0  0
    1.7033    7.7487   -4.4211 F   0  0  0  0  0  0  0  0  0  0  0  0
    1.5207    3.6153   -3.6756 C   0  0  0  0  0  0  0  0  0  0  0  0
    2.5196    3.0138   -2.8767 C   0  0  0  0  0  0  0  0  0  0  0  0
    2.2083    1.9385   -2.0944 C   0  0  0  0  0  0  0  0  0  0  0  0
    3.2799    1.3025   -1.2240 C   0  0  0  0  0  0  0  0  0  0  0  0
    4.3790    0.8211   -2.0733 N   0  0  0  0  0  0  0  0  0  0  0  0
    5.4153    0.2060   -1.2315 C   0  0  0  0  0  0  0  0  0  0  0  0
    4.8178   -0.9629   -0.4652 C   0  0  0  0  0  0  0  0  0  0  0  0
    6.5518   -0.2917   -2.1096 C   0  0  0  0  0  0  0  0  0  0  0  0
    7.9110    0.2357   -1.9217 N   0  0  0  0  0  0  0  0  0  0  0  0
    6.3269   -1.1638   -3.0063 O   0  0  0  0  0  0  0  0  0  0  0  0
    0.6747   -0.9645    0.2521 H   0  0  0  0  0  0  0  0  0  0  0  0
    0.6747    0.7564    0.5545 H   0  0  0  0  0  0  0  0  0  0  0  0
    2.1013   -0.0167   -0.0935 H   0  0  0  0  0  0  0  0  0  0  0  0
   -1.0615    1.5497   -2.8651 H   0  0  0  0  0  0  0  0  0  0  0  0
   -1.2391    5.1640   -5.7057 H   0  0  0  0  0  0  0  0  0  0  0  0
    3.8617    4.8923   -4.0728 H   0  0  0  0  0  0  0  0  0  0  0  0
    4.8836    5.4471   -6.5448 H   0  0  0  0  0  0  0  0  0  0  0  0
    5.5571    7.4093   -7.8627 H   0  0  0  0  0  0  0  0  0  0  0  0
    4.3802    9.5584   -7.5236 H   0  0  0  0  0  0  0  0  0  0  0  0
    3.5175    3.4000   -2.8848 H   0  0  0  0  0  0  0  0  0  0  0  0
    3.6548    2.0279   -0.5326 H   0  0  0  0  0  0  0  0  0  0  0  0
    2.8593    0.4797   -0.6846 H   0  0  0  0  0  0  0  0  0  0  0  0
    4.0216    0.1296   -2.7324 H   0  0  0  0  0  0  0  0  0  0  0  0
    5.7902    0.9315   -0.5401 H   0  0  0  0  0  0  0  0  0  0  0  0
    4.4429   -1.6883   -1.1567 H   0  0  0  0  0  0  0  0  0  0  0  0
    5.5722   -1.4106    0.1475 H   0  0  0  0  0  0  0  0  0  0  0  0
    4.0178   -0.6125    0.1529 H   0  0  0  0  0  0  0  0  0  0  0  0
    8.6736   -0.0983   -2.5110 H   0  0  0  0  0  0  0  0  0  0  0  0
    8.0915    0.9357   -1.2021 H   0  0  0  0  0  0  0  0  0  0  0  0
  1  2  1  0  0  0  0
  1 29  1  0  0  0  0
  1 30  1  0  0  0  0
  1 31  1  0  0  0  0
  2  3  1  0  0  0  0
  3  4  1  0  0  0  0
  3 21  2  0  0  0  0
  4  5  2  0  0  0  0
  4 32  1  0  0  0  0
  5  6  1  0  0  0  0
  5 19  1  0  0  0  0
  6  7  2  0  0  0  0
  7  8  1  0  0  0  0
  7 33  1  0  0  0  0
  8  9  2  0  0  0  0
  9 10  1  0  0  0  0
  9 19  1  0  0  0  0
 10 11  1  0  0  0  0
 10 34  1  0  0  0  0
 11 12  1  0  0  0  0
 11 17  2  0  0  0  0
 12 13  2  0  0  0  0
 12 35  1  0  0  0  0
 13 14  1  0  0  0  0
 13 36  1  0  0  0  0
 14 15  2  0  0  0  0
 14 37  1  0  0  0  0
 15 16  1  0  0  0  0
 15 17  1  0  0  0  0
 17 18  1  0  0  0  0
 19 20  2  0  0  0  0
 20 21  1  0  0  0  0
 20 38  1  0  0  0  0
 21 22  1  0  0  0  0
 22 23  1  0  0  0  0
 22 39  1  0  0  0  0
 22 40  1  0  0  0  0
 23 24  1  0  0  0  0
 23 41  1  0  0  0  0
 24 25  1  0  0  0  0
 24 26  1  0  0  0  0
 24 42  1  0  0  0  0
 25 43  1  0  0  0  0
 25 44  1  0  0  0  0
 25 45  1  0  0  0  0
 26 27  1  0  0  0  0
 26 28  2  0  0  0  0
 27 46  1  0  0  0  0
 27 47  1  0  0  0  0
M  END
