
 OpenBabel03132514253D

 67 72  0  0  0  0  0  0  0  0999 V2000
    1.0387   -0.0774    0.0500 C   0  0  0  0  0  0  0  0  0  0  0  0
    0.5487    1.0557    0.8480 N   0  0  0  0  0  0  0  0  0  0  0  0
   -0.9213    1.0557    0.8480 C   0  0  0  0  0  0  0  0  0  0  0  0
    1.1354    0.9067    2.5006 S   0  0  0  0  0  0  0  0  0  0  0  0
    0.5321   -0.6418    3.2177 C   0  0  0  0  0  0  0  0  0  0  0  0
    2.6659    0.9067    2.5006 O   0  0  0  0  0  0  0  0  0  0  0  0
    0.6103    2.1210    3.3556 N   0  0  0  0  0  0  0  0  0  0  0  0
    0.9655    2.2263    4.7782 C   0  0  0  0  0  0  0  0  0  0  0  0
   -0.0115    2.5647    5.6999 C   0  0  0  0  0  0  0  0  0  0  0  0
    0.4988    2.9326    6.9673 C   0  0  0  0  0  0  0  0  0  0  0  0
    1.7173    2.6541    7.3936 C   0  0  0  0  0  0  0  0  0  0  0  0
    2.0974    2.7661    8.8611 C   0  0  0  0  0  0  0  0  0  0  0  0
    1.4178    2.0073    9.7996 C   0  0  0  0  0  0  0  0  0  0  0  0
    1.6405    2.4147   11.1362 C   0  0  0  0  0  0  0  0  0  0  0  0
    2.6446    3.1770   11.5295 C   0  0  0  0  0  0  0  0  0  0  0  0
    3.0291    3.3021   12.9947 C   0  0  0  0  0  0  0  0  0  0  0  0
    3.4255    2.1819   13.6979 N   0  0  0  0  0  0  0  0  0  0  0  0
    3.7876    2.3025   15.0430 C   0  0  0  0  0  0  0  0  0  0  0  0
    4.2421    1.3533   16.0579 N   0  0  0  0  0  0  0  0  0  0  0  0
    4.4419    2.0129   17.1612 C   0  0  0  0  0  0  0  0  0  0  0  0
    4.8894    1.4398   18.3809 O   0  0  0  0  0  0  0  0  0  0  0  0
    5.1533    0.0466   18.4560 C   0  0  0  0  0  0  0  0  0  0  0  0
    6.0236    0.4070   17.4991 C   0  0  0  0  0  0  0  0  0  0  0  0
    5.4578    0.1205   16.1898 O   0  0  0  0  0  0  0  0  0  0  0  0
    4.4020   -0.9814   16.4012 C   0  0  0  0  0  0  0  0  0  0  0  0
    4.9481   -2.2992   15.8923 C   0  0  0  0  0  0  0  0  0  0  0  0
    5.7139   -2.1086   14.7118 O   0  0  0  0  0  0  0  0  0  0  0  0
    5.7132   -2.8239   16.8887 C   0  0  0  0  0  0  0  0  0  0  0  0
    5.1805   -2.4291   18.1838 O   0  0  0  0  0  0  0  0  0  0  0  0
    4.3654   -1.1436   17.9470 C   0  0  0  0  0  0  0  0  0  0  0  0
    4.1523    3.3677   16.9726 N   0  0  0  0  0  0  0  0  0  0  0  0
    3.7463    3.5613   15.6680 C   0  0  0  0  0  0  0  0  0  0  0  0
    3.3455    4.6782   14.9438 C   0  0  0  0  0  0  0  0  0  0  0  0
    2.9957    4.5495   13.6184 C   0  0  0  0  0  0  0  0  0  0  0  0
    2.4969    5.9861   12.6933 Cl  0  0  0  0  0  0  0  0  0  0  0  0
    3.3198    3.8476   10.5477 C   0  0  0  0  0  0  0  0  0  0  0  0
    3.0669    3.5994    9.2202 C   0  0  0  0  0  0  0  0  0  0  0  0
    2.6185    2.2596    6.4441 C   0  0  0  0  0  0  0  0  0  0  0  0
    2.2202    2.0070    5.1535 C   0  0  0  0  0  0  0  0  0  0  0  0
    0.6821    0.0131   -0.9547 H   0  0  0  0  0  0  0  0  0  0  0  0
    0.6821   -0.9929    0.4739 H   0  0  0  0  0  0  0  0  0  0  0  0
    2.1087   -0.0774    0.0500 H   0  0  0  0  0  0  0  0  0  0  0  0
   -1.2779    0.1403    1.2719 H   0  0  0  0  0  0  0  0  0  0  0  0
   -1.2779    1.8806    1.4288 H   0  0  0  0  0  0  0  0  0  0  0  0
   -1.2779    1.1463   -0.1568 H   0  0  0  0  0  0  0  0  0  0  0  0
    0.8887   -1.4666    2.6369 H   0  0  0  0  0  0  0  0  0  0  0  0
    0.8887   -0.7324    4.2224 H   0  0  0  0  0  0  0  0  0  0  0  0
   -0.5379   -0.6418    3.2177 H   0  0  0  0  0  0  0  0  0  0  0  0
   -1.0573    2.5493    5.4740 H   0  0  0  0  0  0  0  0  0  0  0  0
   -0.1475    3.4741    7.6261 H   0  0  0  0  0  0  0  0  0  0  0  0
    0.7822    1.1874    9.5377 H   0  0  0  0  0  0  0  0  0  0  0  0
    0.9470    2.0820   11.8801 H   0  0  0  0  0  0  0  0  0  0  0  0
    5.2049   -0.3685   19.4409 H   0  0  0  0  0  0  0  0  0  0  0  0
    6.2232    1.4553   17.5776 H   0  0  0  0  0  0  0  0  0  0  0  0
    6.9341   -0.1418   17.6211 H   0  0  0  0  0  0  0  0  0  0  0  0
    3.4721   -0.7457   15.9273 H   0  0  0  0  0  0  0  0  0  0  0  0
    4.1435   -2.9644   15.6576 H   0  0  0  0  0  0  0  0  0  0  0  0
    6.4747   -1.4889   14.9044 H   0  0  0  0  0  0  0  0  0  0  0  0
    6.7142   -2.4579   16.7936 H   0  0  0  0  0  0  0  0  0  0  0  0
    5.7093   -3.8913   16.8142 H   0  0  0  0  0  0  0  0  0  0  0  0
    3.3983   -1.1933   18.4021 H   0  0  0  0  0  0  0  0  0  0  0  0
    4.2288    4.0948   17.6838 H   0  0  0  0  0  0  0  0  0  0  0  0
    3.3088    5.6375   15.4163 H   0  0  0  0  0  0  0  0  0  0  0  0
    4.0558    4.5761   10.8171 H   0  0  0  0  0  0  0  0  0  0  0  0
    3.6565    4.0821    8.4690 H   0  0  0  0  0  0  0  0  0  0  0  0
    3.6487    2.1460    6.7098 H   0  0  0  0  0  0  0  0  0  0  0  0
    2.9274    1.6302    4.4446 H   0  0  0  0  0  0  0  0  0  0  0  0
  1  2  1  0  0  0  0
  1 40  1  0  0  0  0
  1 41  1  0  0  0  0
  1 42  1  0  0  0  0
  2  3  1  0  0  0  0
  2  4  1  0  0  0  0
  3 43  1  0  0  0  0
  3 44  1  0  0  0  0
  3 45  1  0  0  0  0
  4  5  1  0  0  0  0
  4  6  2  0  0  0  0
  4  7  2  0  0  0  0
  5 46  1  0  0  0  0
  5 47  1  0  0  0  0
  5 48  1  0  0  0  0
  7  8  1  0  0  0  0
  8  9  1  0  0  0  0
  8 39  2  0  0  0  0
  9 10  2  0  0  0  0
  9 49  1  0  0  0  0
 10 11  1  0  0  0  0
 10 50  1  0  0  0  0
 11 12  1  0  0  0  0
 11 38  2  0  0  0  0
 12 13  1  0  0  0  0
 12 37  2  0  0  0  0
 13 14  2  0  0  0  0
 13 51  1  0  0  0  0
 14 15  1  0  0  0  0
 14 52  1  0  0  0  0
 15 16  1  0  0  0  0
 15 36  2  0  0  0  0
 16 17  1  0  0  0  0
 16 34  2  0  0  0  0
 17 18  2  0  0  0  0
 18 19  1  0  0  0  0
 18 32  1  0  0  0  0
 19 20  2  0  0  0  0
 20 21  1  0  0  0  0
 20 31  1  0  0  0  0
 21 22  1  0  0  0  0
 22 23  1  0  0  0  0
 22 30  1  0  0  0  0
 22 53  1  0  0  0  0
 23 24  1  0  0  0  0
 23 54  1  0  0  0  0
 23 55  1  0  0  0  0
 24 25  1  0  0  0  0
 25 26  1  0  0  0  0
 25 30  1  0  0  0  0
 25 56  1  0  0  0  0
 26 27  1  0  0  0  0
 26 28  1  0  0  0  0
 26 57  1  0  0  0  0
 27 58  1  0  0  0  0
 28 29  1  0  0  0  0
 28 59  1  0  0  0  0
 28 60  1  0  0  0  0
 29 30  1  0  0  0  0
 30 61  1  0  0  0  0
 31 32  1  0  0  0  0
 31 62  1  0  0  0  0
 32 33  2  0  0  0  0
 33 34  1  0  0  0  0
 33 63  1  0  0  0  0
 34 35  1  0  0  0  0
 36 37  1  0  0  0  0
 36 64  1  0  0  0  0
 37 65  1  0  0  0  0
 38 39  1  0  0  0  0
 38 66  1  0  0  0  0
 39 67  1  0  0  0  0
M  END
