
 OpenBabel03132514253D

 61 63  0  0  0  0  0  0  0  0999 V2000
    1.0955    0.0102   -0.0278 C   0  0  0  0  0  0  0  0  0  0  0  0
    0.6222   -1.0135    0.8349 O   0  0  0  0  0  0  0  0  0  0  0  0
    0.9652   -2.3684    0.5839 C   0  0  0  0  0  0  0  0  0  0  0  0
    0.0430   -3.3727    0.6839 C   0  0  0  0  0  0  0  0  0  0  0  0
    0.4206   -4.7114    0.4360 C   0  0  0  0  0  0  0  0  0  0  0  0
   -0.5181   -5.7090    0.5083 N   0  0  0  0  0  0  0  0  0  0  0  0
   -0.0988   -6.9213    0.2705 C   0  0  0  0  0  0  0  0  0  0  0  0
    1.1806   -7.3046   -0.0283 N   0  0  0  0  0  0  0  0  0  0  0  0
    2.0913   -6.3631   -0.0869 C   0  0  0  0  0  0  0  0  0  0  0  0
    3.4834   -6.7335   -0.3797 N   0  0  0  0  0  0  0  0  0  0  0  0
    3.8378   -8.1426   -0.6021 C   0  0  0  0  0  0  0  0  0  0  0  0
    4.7684   -8.8006    0.1755 C   0  0  0  0  0  0  0  0  0  0  0  0
    5.1012  -10.1265   -0.0703 C   0  0  0  0  0  0  0  0  0  0  0  0
    4.4786  -10.7956   -1.1226 C   0  0  0  0  0  0  0  0  0  0  0  0
    3.5458  -10.1354   -1.9001 C   0  0  0  0  0  0  0  0  0  0  0  0
    2.7361  -10.9689   -3.1822 Cl  0  0  0  0  0  0  0  0  0  0  0  0
    3.2404   -8.8199   -1.6340 C   0  0  0  0  0  0  0  0  0  0  0  0
    2.3130   -8.1914   -2.3849 F   0  0  0  0  0  0  0  0  0  0  0  0
    1.7702   -4.9921    0.1252 C   0  0  0  0  0  0  0  0  0  0  0  0
    2.7083   -3.9381    0.0420 C   0  0  0  0  0  0  0  0  0  0  0  0
    2.3063   -2.6514    0.2612 C   0  0  0  0  0  0  0  0  0  0  0  0
    3.3131   -1.5175    0.1561 C   0  0  0  0  0  0  0  0  0  0  0  0
    4.3910   -1.7272    1.1333 N   0  0  0  0  0  0  0  0  0  0  0  0
    5.3647   -0.6306    1.0317 C   0  0  0  0  0  0  0  0  0  0  0  0
    4.6710    0.6911    1.3183 C   0  0  0  0  0  0  0  0  0  0  0  0
    4.1043    0.6631    2.6745 N   0  0  0  0  0  0  0  0  0  0  0  0
    3.4334    1.9413    2.9517 C   0  0  0  0  0  0  0  0  0  0  0  0
    3.1307   -0.4335    2.7761 C   0  0  0  0  0  0  0  0  0  0  0  0
    3.8244   -1.7552    2.4894 C   0  0  0  0  0  0  0  0  0  0  0  0
    3.1307   -0.4335    2.7761 C   0  0  0  0  0  0  0  0  0  0  0  0
    2.8176   -2.8891    2.5945 C   0  0  0  0  0  0  0  0  0  0  0  0
    3.0228   -3.9658    3.5741 N   0  0  0  0  0  0  0  0  0  0  0  0
    1.7984   -2.9064    1.8355 O   0  0  0  0  0  0  0  0  0  0  0  0
    0.7388    0.9589    0.3153 H   0  0  0  0  0  0  0  0  0  0  0  0
    0.7389   -0.1670   -1.0209 H   0  0  0  0  0  0  0  0  0  0  0  0
    2.1655    0.0102   -0.0278 H   0  0  0  0  0  0  0  0  0  0  0  0
   -0.9677   -3.1442    0.9506 H   0  0  0  0  0  0  0  0  0  0  0  0
   -0.8331   -7.6983    0.3136 H   0  0  0  0  0  0  0  0  0  0  0  0
    4.2034   -6.0126   -0.4286 H   0  0  0  0  0  0  0  0  0  0  0  0
    5.2420   -8.2804    0.9818 H   0  0  0  0  0  0  0  0  0  0  0  0
    5.8246  -10.6267    0.5391 H   0  0  0  0  0  0  0  0  0  0  0  0
    4.7220  -11.8172   -1.3280 H   0  0  0  0  0  0  0  0  0  0  0  0
    3.7311   -4.1478   -0.1921 H   0  0  0  0  0  0  0  0  0  0  0  0
    3.7255   -1.4971   -0.8310 H   0  0  0  0  0  0  0  0  0  0  0  0
    2.8247   -0.5871    0.3579 H   0  0  0  0  0  0  0  0  0  0  0  0
    6.1493   -0.7832    1.7430 H   0  0  0  0  0  0  0  0  0  0  0  0
    5.7771   -0.6102    0.0446 H   0  0  0  0  0  0  0  0  0  0  0  0
    5.3797    1.4893    1.2444 H   0  0  0  0  0  0  0  0  0  0  0  0
    3.8863    0.8437    0.6070 H   0  0  0  0  0  0  0  0  0  0  0  0
    2.6488    2.0940    2.2404 H   0  0  0  0  0  0  0  0  0  0  0  0
    3.0210    1.9209    3.9388 H   0  0  0  0  0  0  0  0  0  0  0  0
    4.1421    2.7395    2.8777 H   0  0  0  0  0  0  0  0  0  0  0  0
    2.3460   -0.2809    2.0648 H   0  0  0  0  0  0  0  0  0  0  0  0
    3.6190   -1.3639    2.5743 H   0  0  0  0  0  0  0  0  0  0  0  0
    2.7182   -0.4539    3.7632 H   0  0  0  0  0  0  0  0  0  0  0  0
    4.6090   -1.9079    3.2007 H   0  0  0  0  0  0  0  0  0  0  0  0
    2.3460   -0.2809    2.0648 H   0  0  0  0  0  0  0  0  0  0  0  0
    2.7182   -0.4539    3.7632 H   0  0  0  0  0  0  0  0  0  0  0  0
    3.8394    0.3647    2.7021 H   0  0  0  0  0  0  0  0  0  0  0  0
    2.3472   -4.7267    3.6446 H   0  0  0  0  0  0  0  0  0  0  0  0
    3.8408   -3.9520    4.1833 H   0  0  0  0  0  0  0  0  0  0  0  0
  1  2  1  0  0  0  0
  1 34  1  0  0  0  0
  1 35  1  0  0  0  0
  1 36  1  0  0  0  0
  2  3  1  0  0  0  0
  3  4  1  0  0  0  0
  3 21  2  0  0  0  0
  4  5  2  0  0  0  0
  4 37  1  0  0  0  0
  5  6  1  0  0  0  0
  5 19  1  0  0  0  0
  6  7  2  0  0  0  0
  7  8  1  0  0  0  0
  7 38  1  0  0  0  0
  8  9  2  0  0  0  0
  9 10  1  0  0  0  0
  9 19  1  0  0  0  0
 10 11  1  0  0  0  0
 10 39  1  0  0  0  0
 11 12  1  0  0  0  0
 11 17  2  0  0  0  0
 12 13  2  0  0  0  0
 12 40  1  0  0  0  0
 13 14  1  0  0  0  0
 13 41  1  0  0  0  0
 14 15  2  0  0  0  0
 14 42  1  0  0  0  0
 15 16  1  0  0  0  0
 15 17  1  0  0  0  0
 17 18  1  0  0  0  0
 19 20  2  0  0  0  0
 20 21  1  0  0  0  0
 20 43  1  0  0  0  0
 21 22  1  0  0  0  0
 22 23  1  0  0  0  0
 22 44  1  0  0  0  0
 22 45  1  0  0  0  0
 23 24  1  0  0  0  0
 23 29  1  0  0  0  0
 24 25  1  0  0  0  0
 24 46  1  0  0  0  0
 24 47  1  0  0  0  0
 25 26  1  0  0  0  0
 25 48  1  0  0  0  0
 25 49  1  0  0  0  0
 26 27  1  0  0  0  0
 26 28  1  0  0  0  0
 27 50  1  0  0  0  0
 27 51  1  0  0  0  0
 27 52  1  0  0  0  0
 28 53  1  0  0  0  0
 28 54  1  0  0  0  0
 28 55  1  0  0  0  0
 29 30  1  0  0  0  0
 29 31  1  0  0  0  0
 29 56  1  0  0  0  0
 30 57  1  0  0  0  0
 30 58  1  0  0  0  0
 30 59  1  0  0  0  0
 31 32  1  0  0  0  0
 31 33  2  0  0  0  0
 32 60  1  0  0  0  0
 32 61  1  0  0  0  0
M  END
