
 OpenBabel03132514253D

 56 58  0  0  0  0  0  0  0  0999 V2000
    0.9982   -0.0710   -0.0704 C   0  0  0  0  0  0  0  0  0  0  0  0
    0.5249    1.1951    0.3647 O   0  0  0  0  0  0  0  0  0  0  0  0
    0.8679    1.6759    1.6561 C   0  0  0  0  0  0  0  0  0  0  0  0
   -0.1337    2.1202    2.4736 C   0  0  0  0  0  0  0  0  0  0  0  0
    0.1433    2.4598    3.8168 C   0  0  0  0  0  0  0  0  0  0  0  0
   -0.8734    2.8751    4.6385 N   0  0  0  0  0  0  0  0  0  0  0  0
   -0.5451    3.1750    5.8650 C   0  0  0  0  0  0  0  0  0  0  0  0
    0.7079    3.1336    6.4138 N   0  0  0  0  0  0  0  0  0  0  0  0
    1.6919    2.7519    5.6359 C   0  0  0  0  0  0  0  0  0  0  0  0
    3.0581    2.7173    6.1773 N   0  0  0  0  0  0  0  0  0  0  0  0
    3.3057    3.1074    7.5728 C   0  0  0  0  0  0  0  0  0  0  0  0
    4.0645    4.2262    7.8487 C   0  0  0  0  0  0  0  0  0  0  0  0
    4.2290    4.6790    9.1514 C   0  0  0  0  0  0  0  0  0  0  0  0
    3.6127    3.9848   10.1912 C   0  0  0  0  0  0  0  0  0  0  0  0
    2.8521    2.8648    9.9130 C   0  0  0  0  0  0  0  0  0  0  0  0
    2.0482    2.0203   11.1915 Cl  0  0  0  0  0  0  0  0  0  0  0  0
    2.7114    2.4384    8.6118 C   0  0  0  0  0  0  0  0  0  0  0  0
    1.9493    1.3571    8.3492 F   0  0  0  0  0  0  0  0  0  0  0  0
    1.4748    2.3699    4.2814 C   0  0  0  0  0  0  0  0  0  0  0  0
    2.4957    1.9216    3.4127 C   0  0  0  0  0  0  0  0  0  0  0  0
    2.1911    1.5756    2.1271 C   0  0  0  0  0  0  0  0  0  0  0  0
    3.2875    1.0790    1.1988 C   0  0  0  0  0  0  0  0  0  0  0  0
    4.3164    2.1190    1.0554 N   0  0  0  0  0  0  0  0  0  0  0  0
    5.3767    1.6387    0.1576 C   0  0  0  0  0  0  0  0  0  0  0  0
    4.7822    1.3227   -1.2052 C   0  0  0  0  0  0  0  0  0  0  0  0
    6.4406    2.7140    0.0093 C   0  0  0  0  0  0  0  0  0  0  0  0
    3.7101    3.3337    0.4917 C   0  0  0  0  0  0  0  0  0  0  0  0
    3.1155    3.0177   -0.8710 C   0  0  0  0  0  0  0  0  0  0  0  0
    2.6137    3.8303    1.4200 C   0  0  0  0  0  0  0  0  0  0  0  0
    2.7040    5.1728    2.0120 N   0  0  0  0  0  0  0  0  0  0  0  0
    1.6189    3.0849    1.6844 O   0  0  0  0  0  0  0  0  0  0  0  0
    0.6415   -0.2641   -1.0605 H   0  0  0  0  0  0  0  0  0  0  0  0
    0.6416   -0.8320    0.5919 H   0  0  0  0  0  0  0  0  0  0  0  0
    2.0682   -0.0710   -0.0704 H   0  0  0  0  0  0  0  0  0  0  0  0
   -1.1304    2.2110    2.0951 H   0  0  0  0  0  0  0  0  0  0  0  0
   -1.3398    3.4863    6.5103 H   0  0  0  0  0  0  0  0  0  0  0  0
    3.8343    2.4226    5.5847 H   0  0  0  0  0  0  0  0  0  0  0  0
    4.5344    4.7540    7.0453 H   0  0  0  0  0  0  0  0  0  0  0  0
    4.8200    5.5477    9.3537 H   0  0  0  0  0  0  0  0  0  0  0  0
    3.7280    4.3180   11.2014 H   0  0  0  0  0  0  0  0  0  0  0  0
    3.5050    1.8536    3.7614 H   0  0  0  0  0  0  0  0  0  0  0  0
    3.7288    0.1948    1.6091 H   0  0  0  0  0  0  0  0  0  0  0  0
    2.8689    0.8566    0.2395 H   0  0  0  0  0  0  0  0  0  0  0  0
    5.8180    0.7545    0.5679 H   0  0  0  0  0  0  0  0  0  0  0  0
    4.3408    2.2069   -1.6154 H   0  0  0  0  0  0  0  0  0  0  0  0
    5.5540    0.9731   -1.8586 H   0  0  0  0  0  0  0  0  0  0  0  0
    4.0332    0.5657   -1.1007 H   0  0  0  0  0  0  0  0  0  0  0  0
    6.8592    2.9365    0.9686 H   0  0  0  0  0  0  0  0  0  0  0  0
    7.2124    2.3645   -0.6442 H   0  0  0  0  0  0  0  0  0  0  0  0
    5.9993    3.5982   -0.4010 H   0  0  0  0  0  0  0  0  0  0  0  0
    4.4590    4.0907    0.3873 H   0  0  0  0  0  0  0  0  0  0  0  0
    2.3666    2.2607   -0.7666 H   0  0  0  0  0  0  0  0  0  0  0  0
    2.6742    3.9019   -1.2813 H   0  0  0  0  0  0  0  0  0  0  0  0
    3.8873    2.6682   -1.5245 H   0  0  0  0  0  0  0  0  0  0  0  0
    1.9683    5.5061    2.6350 H   0  0  0  0  0  0  0  0  0  0  0  0
    3.5024    5.7711    1.7998 H   0  0  0  0  0  0  0  0  0  0  0  0
  1  2  1  0  0  0  0
  1 32  1  0  0  0  0
  1 33  1  0  0  0  0
  1 34  1  0  0  0  0
  2  3  1  0  0  0  0
  3  4  1  0  0  0  0
  3 21  2  0  0  0  0
  4  5  2  0  0  0  0
  4 35  1  0  0  0  0
  5  6  1  0  0  0  0
  5 19  1  0  0  0  0
  6  7  2  0  0  0  0
  7  8  1  0  0  0  0
  7 36  1  0  0  0  0
  8  9  2  0  0  0  0
  9 10  1  0  0  0  0
  9 19  1  0  0  0  0
 10 11  1  0  0  0  0
 10 37  1  0  0  0  0
 11 12  1  0  0  0  0
 11 17  2  0  0  0  0
 12 13  2  0  0  0  0
 12 38  1  0  0  0  0
 13 14  1  0  0  0  0
 13 39  1  0  0  0  0
 14 15  2  0  0  0  0
 14 40  1  0  0  0  0
 15 16  1  0  0  0  0
 15 17  1  0  0  0  0
 17 18  1  0  0  0  0
 19 20  2  0  0  0  0
 20 21  1  0  0  0  0
 20 41  1  0  0  0  0
 21 22  1  0  0  0  0
 22 23  1  0  0  0  0
 22 42  1  0  0  0  0
 22 43  1  0  0  0  0
 23 24  1  0  0  0  0
 23 27  1  0  0  0  0
 24 25  1  0  0  0  0
 24 26  1  0  0  0  0
 24 44  1  0  0  0  0
 25 45  1  0  0  0  0
 25 46  1  0  0  0  0
 25 47  1  0  0  0  0
 26 48  1  0  0  0  0
 26 49  1  0  0  0  0
 26 50  1  0  0  0  0
 27 28  1  0  0  0  0
 27 29  1  0  0  0  0
 27 51  1  0  0  0  0
 28 52  1  0  0  0  0
 28 53  1  0  0  0  0
 28 54  1  0  0  0  0
 29 30  1  0  0  0  0
 29 31  2  0  0  0  0
 30 55  1  0  0  0  0
 30 56  1  0  0  0  0
M  END
