
 OpenBabel03132514253D

 51 54  0  0  0  0  0  0  0  0999 V2000
    0.9083    0.0205    0.0341 O   0  0  0  0  0  0  0  0  0  0  0  0
    2.1792    0.0205    0.0341 C   0  0  0  0  0  0  0  0  0  0  0  0
    2.8892    0.7425   -0.9614 O   0  0  0  0  0  0  0  0  0  0  0  0
    2.9392   -0.7523    1.0997 C   0  0  0  0  0  0  0  0  0  0  0  0
    3.9330   -0.3278    1.9510 C   0  0  0  0  0  0  0  0  0  0  0  0
    4.2103   -1.2928    2.8824 N   0  0  0  0  0  0  0  0  0  0  0  0
    3.4281   -2.3944    2.6221 C   0  0  0  0  0  0  0  0  0  0  0  0
    3.4191   -3.6418    3.2556 C   0  0  0  0  0  0  0  0  0  0  0  0
    2.5640   -4.5855    2.7223 C   0  0  0  0  0  0  0  0  0  0  0  0
    2.5168   -6.1768    3.4380 Cl  0  0  0  0  0  0  0  0  0  0  0  0
    1.7434   -4.3382    1.6077 C   0  0  0  0  0  0  0  0  0  0  0  0
    0.8375   -5.4354    1.0731 C   0  0  0  0  0  0  0  0  0  0  0  0
    0.9759   -5.9394   -0.2096 C   0  0  0  0  0  0  0  0  0  0  0  0
   -0.0975   -6.7647   -0.6202 C   0  0  0  0  0  0  0  0  0  0  0  0
   -0.9699   -7.3220    0.1998 C   0  0  0  0  0  0  0  0  0  0  0  0
   -1.8199   -8.3798   -0.2185 O   0  0  0  0  0  0  0  0  0  0  0  0
   -2.7444   -8.9514    0.6954 C   0  0  0  0  0  0  0  0  0  0  0  0
   -1.9914   -9.5323    1.8811 C   0  0  0  0  0  0  0  0  0  0  0  0
   -1.2097   -8.4286    2.5749 C   0  0  0  0  0  0  0  0  0  0  0  0
   -2.1390   -7.3912    3.0451 N   0  0  0  0  0  0  0  0  0  0  0  0
   -2.2185   -7.3409    4.5907 C   0  0  0  0  0  0  0  0  0  0  0  0
   -2.8343   -5.9408    4.8536 C   0  0  0  0  0  0  0  0  0  0  0  0
   -2.1846   -5.0346    3.7868 C   0  0  0  0  0  0  0  0  0  0  0  0
   -1.1508   -4.3660    4.2901 F   0  0  0  0  0  0  0  0  0  0  0  0
   -1.7425   -5.9572    2.6372 C   0  0  0  0  0  0  0  0  0  0  0  0
   -1.0107   -6.8256    1.4731 C   0  0  0  0  0  0  0  0  0  0  0  0
   -0.0752   -5.9181    1.9081 C   0  0  0  0  0  0  0  0  0  0  0  0
    1.7600   -3.0947    0.9961 C   0  0  0  0  0  0  0  0  0  0  0  0
    2.6055   -2.0931    1.5059 C   0  0  0  0  0  0  0  0  0  0  0  0
    3.8892    0.7425   -0.9614 H   0  0  0  0  0  0  0  0  0  0  0  0
    4.4209    0.6228    1.8936 H   0  0  0  0  0  0  0  0  0  0  0  0
    4.8848   -1.2088    3.6429 H   0  0  0  0  0  0  0  0  0  0  0  0
    4.0378   -3.8518    4.1029 H   0  0  0  0  0  0  0  0  0  0  0  0
    1.8182   -5.7241   -0.8335 H   0  0  0  0  0  0  0  0  0  0  0  0
   -0.2103   -6.9502   -1.6680 H   0  0  0  0  0  0  0  0  0  0  0  0
   -3.4208   -8.1962    1.0376 H   0  0  0  0  0  0  0  0  0  0  0  0
   -3.2946   -9.7283    0.2070 H   0  0  0  0  0  0  0  0  0  0  0  0
   -2.6880   -9.9630    2.5697 H   0  0  0  0  0  0  0  0  0  0  0  0
   -1.3150  -10.2874    1.5388 H   0  0  0  0  0  0  0  0  0  0  0  0
   -0.6796   -8.8375    3.4096 H   0  0  0  0  0  0  0  0  0  0  0  0
   -0.5131   -7.9979    1.8863 H   0  0  0  0  0  0  0  0  0  0  0  0
   -2.7881   -8.1420    5.0134 H   0  0  0  0  0  0  0  0  0  0  0  0
   -1.2465   -7.4240    5.0303 H   0  0  0  0  0  0  0  0  0  0  0  0
   -2.6542   -5.5946    5.8499 H   0  0  0  0  0  0  0  0  0  0  0  0
   -3.8973   -5.9653    4.7341 H   0  0  0  0  0  0  0  0  0  0  0  0
   -2.8931   -4.3157    3.4318 H   0  0  0  0  0  0  0  0  0  0  0  0
   -0.6890   -5.8822    2.4658 H   0  0  0  0  0  0  0  0  0  0  0  0
   -2.2389   -5.6808    1.7305 H   0  0  0  0  0  0  0  0  0  0  0  0
   -1.7823   -7.1484    2.1405 H   0  0  0  0  0  0  0  0  0  0  0  0
   -0.0822   -5.5975    2.9289 H   0  0  0  0  0  0  0  0  0  0  0  0
    1.1381   -2.8994    0.1476 H   0  0  0  0  0  0  0  0  0  0  0  0
  1  2  2  0  0  0  0
  2  3  1  0  0  0  0
  2  4  1  0  0  0  0
  3 30  1  0  0  0  0
  4  5  2  0  0  0  0
  4 29  1  0  0  0  0
  5  6  1  0  0  0  0
  5 31  1  0  0  0  0
  6  7  1  0  0  0  0
  6 32  1  0  0  0  0
  7  8  1  0  0  0  0
  7 29  2  0  0  0  0
  8  9  2  0  0  0  0
  8 33  1  0  0  0  0
  9 10  1  0  0  0  0
  9 11  1  0  0  0  0
 11 12  1  0  0  0  0
 11 28  2  0  0  0  0
 12 13  1  0  0  0  0
 12 27  2  0  0  0  0
 13 14  2  0  0  0  0
 13 34  1  0  0  0  0
 14 15  1  0  0  0  0
 14 35  1  0  0  0  0
 15 16  1  0  0  0  0
 15 26  2  0  0  0  0
 16 17  1  0  0  0  0
 17 18  1  0  0  0  0
 17 36  1  0  0  0  0
 17 37  1  0  0  0  0
 18 19  1  0  0  0  0
 18 38  1  0  0  0  0
 18 39  1  0  0  0  0
 19 20  1  0  0  0  0
 19 40  1  0  0  0  0
 19 41  1  0  0  0  0
 20 21  1  0  0  0  0
 20 25  1  0  0  0  0
 21 22  1  0  0  0  0
 21 42  1  0  0  0  0
 21 43  1  0  0  0  0
 22 23  1  0  0  0  0
 22 44  1  0  0  0  0
 22 45  1  0  0  0  0
 23 24  1  0  0  0  0
 23 25  1  0  0  0  0
 23 46  1  0  0  0  0
 25 47  1  0  0  0  0
 25 48  1  0  0  0  0
 26 27  1  0  0  0  0
 26 49  1  0  0  0  0
 27 50  1  0  0  0  0
 28 29  1  0  0  0  0
 28 51  1  0  0  0  0
M  END
