
 OpenBabel03132514253D

 63 68  0  0  0  0  0  0  0  0999 V2000
    2.5490    0.5710    0.0100 C   0  0  0  0  0  0  0  0  0  0  0  0
    1.1040    0.2090   -0.0070 C   0  0  0  0  0  0  0  0  0  0  0  0
    0.6960   -1.0920   -0.0110 N   0  0  0  0  0  0  0  0  0  0  0  0
   -0.6760   -1.1650    0.0080 C   0  0  0  0  0  0  0  0  0  0  0  0
   -1.5072   -2.4375    0.0211 C   0  0  0  0  0  0  0  0  0  0  0  0
   -1.3738   -3.3175    1.0288 C   0  0  0  0  0  0  0  0  0  0  0  0
   -0.4684   -3.0372    2.1837 C   0  0  0  0  0  0  0  0  0  0  0  0
    0.2743   -2.0682    2.3502 O   0  0  0  0  0  0  0  0  0  0  0  0
   -0.6150   -4.0599    3.0616 N   0  0  0  0  0  0  0  0  0  0  0  0
   -1.5277   -5.0089    2.5881 C   0  0  0  0  0  0  0  0  0  0  0  0
   -1.9063   -6.1709    3.2185 C   0  0  0  0  0  0  0  0  0  0  0  0
   -2.7966   -7.0025    2.5485 C   0  0  0  0  0  0  0  0  0  0  0  0
   -3.2806   -8.2863    3.2027 C   0  0  0  0  0  0  0  0  0  0  0  0
   -3.8519   -8.4132    4.4420 C   0  0  0  0  0  0  0  0  0  0  0  0
   -4.0989  -10.0956    4.8309 S   0  0  0  0  0  0  0  0  0  0  0  0
   -3.4111  -10.5142    3.2996 C   0  0  0  0  0  0  0  0  0  0  0  0
   -3.2665  -11.9526    2.8301 C   0  0  0  0  0  0  0  0  0  0  0  0
   -4.4363  -12.6806    2.6881 C   0  0  0  0  0  0  0  0  0  0  0  0
   -4.2293  -14.0685    2.5071 C   0  0  0  0  0  0  0  0  0  0  0  0
   -3.0835  -14.6135    2.1409 C   0  0  0  0  0  0  0  0  0  0  0  0
   -1.9739  -13.8207    2.2400 C   0  0  0  0  0  0  0  0  0  0  0  0
   -2.0847  -12.4846    2.5411 C   0  0  0  0  0  0  0  0  0  0  0  0
   -3.0274   -9.4983    2.5819 N   0  0  0  0  0  0  0  0  0  0  0  0
   -3.2419   -6.6566    1.2805 C   0  0  0  0  0  0  0  0  0  0  0  0
   -2.8626   -5.4658    0.6742 C   0  0  0  0  0  0  0  0  0  0  0  0
   -2.0015   -4.6029    1.3399 C   0  0  0  0  0  0  0  0  0  0  0  0
   -1.1600    0.1200    0.0130 C   0  0  0  0  0  0  0  0  0  0  0  0
   -2.6060    0.5470   -0.0040 C   0  0  0  0  0  0  0  0  0  0  0  0
   -0.0230    0.9930   -0.0080 C   0  0  0  0  0  0  0  0  0  0  0  0
   -0.0588    2.5124   -0.0278 C   0  0  0  0  0  0  0  0  0  0  0  0
   -1.1741    3.1218   -0.0266 O   0  0  0  0  0  0  0  0  0  0  0  0
    1.1965    3.2770   -0.0483 N   0  0  0  0  0  0  0  0  0  0  0  0
    2.2871    3.2689   -1.0403 C   0  0  0  0  0  0  0  0  0  0  0  0
    3.5988    2.9880   -0.3420 C   0  0  0  0  0  0  0  0  0  0  0  0
    3.8530    3.9541    0.6776 O   0  0  0  0  0  0  0  0  0  0  0  0
    2.8060    3.9240    1.6479 C   0  0  0  0  0  0  0  0  0  0  0  0
    1.4673    4.2612    1.0191 C   0  0  0  0  0  0  0  0  0  0  0  0
    2.7801    1.1570   -0.8550 H   0  0  0  0  0  0  0  0  0  0  0  0
    2.7646    1.1369    0.8922 H   0  0  0  0  0  0  0  0  0  0  0  0
    3.1402   -0.3208    0.0050 H   0  0  0  0  0  0  0  0  0  0  0  0
    1.3213   -1.8977   -0.0260 H   0  0  0  0  0  0  0  0  0  0  0  0
   -2.1987   -2.6329   -0.7717 H   0  0  0  0  0  0  0  0  0  0  0  0
   -0.1233   -4.1287    3.9526 H   0  0  0  0  0  0  0  0  0  0  0  0
   -1.5302   -6.4252    4.1874 H   0  0  0  0  0  0  0  0  0  0  0  0
   -4.1102   -7.5950    5.0814 H   0  0  0  0  0  0  0  0  0  0  0  0
   -5.4082  -12.2339    2.7131 H   0  0  0  0  0  0  0  0  0  0  0  0
   -5.0589  -14.7221    2.6789 H   0  0  0  0  0  0  0  0  0  0  0  0
   -3.0264  -15.6212    1.7857 H   0  0  0  0  0  0  0  0  0  0  0  0
   -1.0054  -14.2468    2.0808 H   0  0  0  0  0  0  0  0  0  0  0  0
   -1.2107  -11.8673    2.5427 H   0  0  0  0  0  0  0  0  0  0  0  0
   -3.8940   -7.3239    0.7567 H   0  0  0  0  0  0  0  0  0  0  0  0
   -3.2310   -5.2152   -0.2986 H   0  0  0  0  0  0  0  0  0  0  0  0
   -2.8080    1.1564    0.8520 H   0  0  0  0  0  0  0  0  0  0  0  0
   -2.8022    1.1067   -0.8946 H   0  0  0  0  0  0  0  0  0  0  0  0
   -3.2339   -0.3191    0.0185 H   0  0  0  0  0  0  0  0  0  0  0  0
    2.3369    4.2216   -1.5248 H   0  0  0  0  0  0  0  0  0  0  0  0
    2.1008    2.5083   -1.7695 H   0  0  0  0  0  0  0  0  0  0  0  0
    3.5429    2.0205    0.1115 H   0  0  0  0  0  0  0  0  0  0  0  0
    4.3913    3.0203   -1.0601 H   0  0  0  0  0  0  0  0  0  0  0  0
    3.0204    4.6530    2.4012 H   0  0  0  0  0  0  0  0  0  0  0  0
    2.7543    2.9445    2.0756 H   0  0  0  0  0  0  0  0  0  0  0  0
    1.4894    5.2505    0.6121 H   0  0  0  0  0  0  0  0  0  0  0  0
    0.6969    4.2127    1.7600 H   0  0  0  0  0  0  0  0  0  0  0  0
  1  2  1  0  0  0  0
  1 38  1  0  0  0  0
  1 39  1  0  0  0  0
  1 40  1  0  0  0  0
  2  3  1  0  0  0  0
  2 29  2  0  0  0  0
  3  4  1  0  0  0  0
  3 41  1  0  0  0  0
  4  5  1  0  0  0  0
  4 27  2  0  0  0  0
  5  6  2  0  0  0  0
  5 42  1  0  0  0  0
  6  7  1  0  0  0  0
  6 26  1  0  0  0  0
  7  8  2  0  0  0  0
  7  9  1  0  0  0  0
  9 10  1  0  0  0  0
  9 43  1  0  0  0  0
 10 11  1  0  0  0  0
 10 26  2  0  0  0  0
 11 12  2  0  0  0  0
 11 44  1  0  0  0  0
 12 13  1  0  0  0  0
 12 24  1  0  0  0  0
 13 14  2  0  0  0  0
 13 23  1  0  0  0  0
 14 15  1  0  0  0  0
 14 45  1  0  0  0  0
 15 16  1  0  0  0  0
 16 17  1  0  0  0  0
 16 23  2  0  0  0  0
 17 18  1  0  0  0  0
 17 22  2  0  0  0  0
 18 19  2  0  0  0  0
 18 46  1  0  0  0  0
 19 20  1  0  0  0  0
 19 47  1  0  0  0  0
 20 21  2  0  0  0  0
 20 48  1  0  0  0  0
 21 22  1  0  0  0  0
 21 49  1  0  0  0  0
 22 50  1  0  0  0  0
 24 25  2  0  0  0  0
 24 51  1  0  0  0  0
 25 26  1  0  0  0  0
 25 52  1  0  0  0  0
 27 28  1  0  0  0  0
 27 29  1  0  0  0  0
 28 53  1  0  0  0  0
 28 54  1  0  0  0  0
 28 55  1  0  0  0  0
 29 30  1  0  0  0  0
 30 31  2  0  0  0  0
 30 32  1  0  0  0  0
 32 33  1  0  0  0  0
 32 37  1  0  0  0  0
 33 34  1  0  0  0  0
 33 56  1  0  0  0  0
 33 57  1  0  0  0  0
 34 35  1  0  0  0  0
 34 58  1  0  0  0  0
 34 59  1  0  0  0  0
 35 36  1  0  0  0  0
 36 37  1  0  0  0  0
 36 60  1  0  0  0  0
 36 61  1  0  0  0  0
 37 62  1  0  0  0  0
 37 63  1  0  0  0  0
M  END
