
 OpenBabel03132514253D

 62 66  0  0  0  0  0  0  0  0999 V2000
    0.9492    0.0512   -0.0693 O   0  0  0  0  0  0  0  0  0  0  0  0
    2.2201    0.0512   -0.0693 C   0  0  0  0  0  0  0  0  0  0  0  0
    2.9801    0.6432    1.1065 C   0  0  0  0  0  0  0  0  0  0  0  0
    4.1221    1.3998    0.9016 C   0  0  0  0  0  0  0  0  0  0  0  0
    4.9326    1.5377    2.0532 C   0  0  0  0  0  0  0  0  0  0  0  0
    4.5240    1.3101    3.2882 C   0  0  0  0  0  0  0  0  0  0  0  0
    5.3128    1.7929    4.4945 C   0  0  0  0  0  0  0  0  0  0  0  0
    5.7880    0.8594    5.4180 C   0  0  0  0  0  0  0  0  0  0  0  0
    6.5623    1.2822    6.4746 N   0  0  0  0  0  0  0  0  0  0  0  0
    6.8785    2.6277    6.6316 C   0  0  0  0  0  0  0  0  0  0  0  0
    6.4152    3.5532    5.7208 C   0  0  0  0  0  0  0  0  0  0  0  0
    5.6369    3.1387    4.6520 C   0  0  0  0  0  0  0  0  0  0  0  0
    6.7286    5.0231    5.8291 N   0  0  0  0  0  0  0  0  0  0  0  0
    6.5925    5.9908    4.7308 C   0  0  0  0  0  0  0  0  0  0  0  0
    7.4898    5.5762    3.5762 C   0  0  0  0  0  0  0  0  0  0  0  0
    8.5118    6.4296    3.1943 C   0  0  0  0  0  0  0  0  0  0  0  0
    9.1309    6.0723    1.9732 C   0  0  0  0  0  0  0  0  0  0  0  0
   10.0981    7.3133    1.1409 Cl  0  0  0  0  0  0  0  0  0  0  0  0
    9.0412    4.8820    1.4081 C   0  0  0  0  0  0  0  0  0  0  0  0
    8.0545    4.0594    1.8764 C   0  0  0  0  0  0  0  0  0  0  0  0
    7.3187    4.3990    2.9860 C   0  0  0  0  0  0  0  0  0  0  0  0
    6.2996    3.4184    3.5429 C   0  0  0  0  0  0  0  0  0  0  0  0
    5.3846    3.1548    2.6144 F   0  0  0  0  0  0  0  0  0  0  0  0
    6.9137    2.2917    3.8926 F   0  0  0  0  0  0  0  0  0  0  0  0
    5.7089    3.9507    4.6090 F   0  0  0  0  0  0  0  0  0  0  0  0
    7.2071    5.3684    7.2374 C   0  0  0  0  0  0  0  0  0  0  0  0
    8.3324    4.3992    7.6169 C   0  0  0  0  0  0  0  0  0  0  0  0
    7.7250    3.0120    7.8170 N   0  0  0  0  0  0  0  0  0  0  0  0
    3.3533    0.6168    3.4235 C   0  0  0  0  0  0  0  0  0  0  0  0
    2.5715    0.3303    2.3305 C   0  0  0  0  0  0  0  0  0  0  0  0
    2.9551   -0.5214   -1.2063 N   0  0  0  0  0  0  0  0  0  0  0  0
    4.0875   -1.4469   -1.0731 C   0  0  0  0  0  0  0  0  0  0  0  0
    5.3342   -0.8524   -1.6916 C   0  0  0  0  0  0  0  0  0  0  0  0
    5.1062   -0.5208   -3.1646 C   0  0  0  0  0  0  0  0  0  0  0  0
    3.8545    0.3403   -3.3239 C   0  0  0  0  0  0  0  0  0  0  0  0
    2.6700   -0.3046   -2.6235 C   0  0  0  0  0  0  0  0  0  0  0  0
    4.3691    1.8400   -0.0419 H   0  0  0  0  0  0  0  0  0  0  0  0
    5.9471    1.8479    1.9137 H   0  0  0  0  0  0  0  0  0  0  0  0
    5.5518   -0.1781    5.3050 H   0  0  0  0  0  0  0  0  0  0  0  0
    5.2823    3.8571    3.9427 H   0  0  0  0  0  0  0  0  0  0  0  0
    5.5749    6.0150    4.4009 H   0  0  0  0  0  0  0  0  0  0  0  0
    6.8793    6.9627    5.0743 H   0  0  0  0  0  0  0  0  0  0  0  0
    8.8064    7.2817    3.7705 H   0  0  0  0  0  0  0  0  0  0  0  0
    9.7048    4.5778    0.6259 H   0  0  0  0  0  0  0  0  0  0  0  0
    7.8525    3.1379    1.3716 H   0  0  0  0  0  0  0  0  0  0  0  0
    6.3979    5.2826    7.9321 H   0  0  0  0  0  0  0  0  0  0  0  0
    7.5734    6.3736    7.2583 H   0  0  0  0  0  0  0  0  0  0  0  0
    9.0700    4.3700    6.8423 H   0  0  0  0  0  0  0  0  0  0  0  0
    8.7989    4.7239    8.5234 H   0  0  0  0  0  0  0  0  0  0  0  0
    7.8722    2.4268    8.6394 H   0  0  0  0  0  0  0  0  0  0  0  0
    3.0415    0.2928    4.3944 H   0  0  0  0  0  0  0  0  0  0  0  0
    1.6249   -0.1495    2.4670 H   0  0  0  0  0  0  0  0  0  0  0  0
    3.8506   -2.3585   -1.5807 H   0  0  0  0  0  0  0  0  0  0  0  0
    4.2659   -1.6378   -0.0355 H   0  0  0  0  0  0  0  0  0  0  0  0
    6.1261   -1.5685   -1.6207 H   0  0  0  0  0  0  0  0  0  0  0  0
    5.5928    0.0435   -1.1667 H   0  0  0  0  0  0  0  0  0  0  0  0
    5.9516    0.0201   -3.5357 H   0  0  0  0  0  0  0  0  0  0  0  0
    4.9828   -1.4292   -3.7164 H   0  0  0  0  0  0  0  0  0  0  0  0
    4.0362    1.2985   -2.8837 H   0  0  0  0  0  0  0  0  0  0  0  0
    3.6317    0.4480   -4.3649 H   0  0  0  0  0  0  0  0  0  0  0  0
    1.8273    0.3495   -2.7059 H   0  0  0  0  0  0  0  0  0  0  0  0
    2.4598   -1.2462   -3.0863 H   0  0  0  0  0  0  0  0  0  0  0  0
  1  2  2  0  0  0  0
  2  3  1  0  0  0  0
  2 31  1  0  0  0  0
  3  4  1  0  0  0  0
  3 30  2  0  0  0  0
  4  5  2  0  0  0  0
  4 37  1  0  0  0  0
  5  6  1  0  0  0  0
  5 38  1  0  0  0  0
  6  7  1  0  0  0  0
  6 29  2  0  0  0  0
  7  8  1  0  0  0  0
  7 12  2  0  0  0  0
  8  9  2  0  0  0  0
  8 39  1  0  0  0  0
  9 10  1  0  0  0  0
 10 11  2  0  0  0  0
 10 28  1  0  0  0  0
 11 12  1  0  0  0  0
 11 13  1  0  0  0  0
 12 40  1  0  0  0  0
 13 14  1  0  0  0  0
 13 26  1  0  0  0  0
 14 15  1  0  0  0  0
 14 41  1  0  0  0  0
 14 42  1  0  0  0  0
 15 16  1  0  0  0  0
 15 21  2  0  0  0  0
 16 17  2  0  0  0  0
 16 43  1  0  0  0  0
 17 18  1  0  0  0  0
 17 19  1  0  0  0  0
 19 20  2  0  0  0  0
 19 44  1  0  0  0  0
 20 21  1  0  0  0  0
 20 45  1  0  0  0  0
 21 22  1  0  0  0  0
 22 23  1  0  0  0  0
 22 24  1  0  0  0  0
 22 25  1  0  0  0  0
 26 27  1  0  0  0  0
 26 46  1  0  0  0  0
 26 47  1  0  0  0  0
 27 28  1  0  0  0  0
 27 48  1  0  0  0  0
 27 49  1  0  0  0  0
 28 50  1  0  0  0  0
 29 30  1  0  0  0  0
 29 51  1  0  0  0  0
 30 52  1  0  0  0  0
 31 32  1  0  0  0  0
 31 36  1  0  0  0  0
 32 33  1  0  0  0  0
 32 53  1  0  0  0  0
 32 54  1  0  0  0  0
 33 34  1  0  0  0  0
 33 55  1  0  0  0  0
 33 56  1  0  0  0  0
 34 35  1  0  0  0  0
 34 57  1  0  0  0  0
 34 58  1  0  0  0  0
 35 36  1  0  0  0  0
 35 59  1  0  0  0  0
 35 60  1  0  0  0  0
 36 61  1  0  0  0  0
 36 62  1  0  0  0  0
M  END
