
 OpenBabel03132514253D

 56 60  0  0  0  0  0  0  0  0999 V2000
    0.9926   -0.0552    0.0831 O   0  0  0  0  0  0  0  0  0  0  0  0
    2.2635   -0.0552    0.0831 C   0  0  0  0  0  0  0  0  0  0  0  0
    2.9735   -0.5987   -1.0201 O   0  0  0  0  0  0  0  0  0  0  0  0
    3.0235    0.5266    1.2639 C   0  0  0  0  0  0  0  0  0  0  0  0
    2.7089   -0.3356    2.4897 C   0  0  0  0  0  0  0  0  0  0  0  0
    3.5773    0.1211    3.6684 C   0  0  0  0  0  0  0  0  0  0  0  0
    3.4547    1.6189    3.7980 C   0  0  0  0  0  0  0  0  0  0  0  0
    2.9676    2.4329    2.8348 C   0  0  0  0  0  0  0  0  0  0  0  0
    2.9965    3.7269    3.2745 C   0  0  0  0  0  0  0  0  0  0  0  0
    2.6198    4.8974    2.6761 C   0  0  0  0  0  0  0  0  0  0  0  0
    2.7437    6.0769    3.3228 C   0  0  0  0  0  0  0  0  0  0  0  0
    2.3442    7.2791    2.6812 O   0  0  0  0  0  0  0  0  0  0  0  0
    2.4727    8.5212    3.3572 C   0  0  0  0  0  0  0  0  0  0  0  0
    1.6448    8.4925    4.6317 C   0  0  0  0  0  0  0  0  0  0  0  0
    1.3412    7.2577    5.2698 C   0  0  0  0  0  0  0  0  0  0  0  0
    0.3437    7.2196    6.2577 C   0  0  0  0  0  0  0  0  0  0  0  0
   -0.1008    8.3263    6.7766 C   0  0  0  0  0  0  0  0  0  0  0  0
    0.4218    9.5575    6.3589 C   0  0  0  0  0  0  0  0  0  0  0  0
    1.1905    9.6248    5.1715 C   0  0  0  0  0  0  0  0  0  0  0  0
    3.2644    6.1211    4.6236 C   0  0  0  0  0  0  0  0  0  0  0  0
    3.6460    4.9599    5.2348 C   0  0  0  0  0  0  0  0  0  0  0  0
    3.5091    3.7474    4.5497 C   0  0  0  0  0  0  0  0  0  0  0  0
    3.8075    2.4149    4.9071 N   0  0  0  0  0  0  0  0  0  0  0  0
    4.3732    1.9497    6.1816 C   0  0  0  0  0  0  0  0  0  0  0  0
    3.4058    0.9809    6.8418 C   0  0  0  0  0  0  0  0  0  0  0  0
    3.0678   -0.2024    6.1279 C   0  0  0  0  0  0  0  0  0  0  0  0
    1.9994   -0.9962    6.5763 C   0  0  0  0  0  0  0  0  0  0  0  0
    1.5060   -0.8117    7.7655 C   0  0  0  0  0  0  0  0  0  0  0  0
    2.0459    0.1716    8.6051 C   0  0  0  0  0  0  0  0  0  0  0  0
    2.9008    1.1621    8.0633 C   0  0  0  0  0  0  0  0  0  0  0  0
    2.4826    1.9461    1.4885 C   0  0  0  0  0  0  0  0  0  0  0  0
    3.9735   -0.5987   -1.0201 H   0  0  0  0  0  0  0  0  0  0  0  0
    4.0797    0.5479    1.0941 H   0  0  0  0  0  0  0  0  0  0  0  0
    2.9164   -1.3617    2.2686 H   0  0  0  0  0  0  0  0  0  0  0  0
    1.6753   -0.2294    2.7454 H   0  0  0  0  0  0  0  0  0  0  0  0
    4.5984   -0.1509    3.4999 H   0  0  0  0  0  0  0  0  0  0  0  0
    3.2402   -0.3483    4.5689 H   0  0  0  0  0  0  0  0  0  0  0  0
    2.2218    4.8788    1.6830 H   0  0  0  0  0  0  0  0  0  0  0  0
    3.5004    8.6887    3.6033 H   0  0  0  0  0  0  0  0  0  0  0  0
    2.1245    9.3099    2.7234 H   0  0  0  0  0  0  0  0  0  0  0  0
    1.8678    6.3663    4.9995 H   0  0  0  0  0  0  0  0  0  0  0  0
   -0.0507    6.2799    6.5836 H   0  0  0  0  0  0  0  0  0  0  0  0
   -0.8665    8.2966    7.5234 H   0  0  0  0  0  0  0  0  0  0  0  0
    0.2411   10.4417    6.9338 H   0  0  0  0  0  0  0  0  0  0  0  0
    1.4036   10.5686    4.7146 H   0  0  0  0  0  0  0  0  0  0  0  0
    3.3624    7.0566    5.1339 H   0  0  0  0  0  0  0  0  0  0  0  0
    4.0453    4.9776    6.2273 H   0  0  0  0  0  0  0  0  0  0  0  0
    5.3043    1.4551    5.9991 H   0  0  0  0  0  0  0  0  0  0  0  0
    4.5350    2.7876    6.8270 H   0  0  0  0  0  0  0  0  0  0  0  0
    3.6223   -0.4849    5.2575 H   0  0  0  0  0  0  0  0  0  0  0  0
    1.5913   -1.7530    5.9394 H   0  0  0  0  0  0  0  0  0  0  0  0
    0.6868   -1.4116    8.1030 H   0  0  0  0  0  0  0  0  0  0  0  0
    1.8136    0.1741    9.6496 H   0  0  0  0  0  0  0  0  0  0  0  0
    3.1379    2.0417    8.6246 H   0  0  0  0  0  0  0  0  0  0  0  0
    2.8289    2.5987    0.7146 H   0  0  0  0  0  0  0  0  0  0  0  0
    1.4128    1.9319    1.4731 H   0  0  0  0  0  0  0  0  0  0  0  0
  1  2  2  0  0  0  0
  2  3  1  0  0  0  0
  2  4  1  0  0  0  0
  3 32  1  0  0  0  0
  4  5  1  0  0  0  0
  4 31  1  0  0  0  0
  4 33  1  0  0  0  0
  5  6  1  0  0  0  0
  5 34  1  0  0  0  0
  5 35  1  0  0  0  0
  6  7  1  0  0  0  0
  6 36  1  0  0  0  0
  6 37  1  0  0  0  0
  7  8  2  0  0  0  0
  7 23  1  0  0  0  0
  8  9  1  0  0  0  0
  8 31  1  0  0  0  0
  9 10  1  0  0  0  0
  9 22  2  0  0  0  0
 10 11  2  0  0  0  0
 10 38  1  0  0  0  0
 11 12  1  0  0  0  0
 11 20  1  0  0  0  0
 12 13  1  0  0  0  0
 13 14  1  0  0  0  0
 13 39  1  0  0  0  0
 13 40  1  0  0  0  0
 14 15  1  0  0  0  0
 14 19  2  0  0  0  0
 15 16  2  0  0  0  0
 15 41  1  0  0  0  0
 16 17  1  0  0  0  0
 16 42  1  0  0  0  0
 17 18  2  0  0  0  0
 17 43  1  0  0  0  0
 18 19  1  0  0  0  0
 18 44  1  0  0  0  0
 19 45  1  0  0  0  0
 20 21  2  0  0  0  0
 20 46  1  0  0  0  0
 21 22  1  0  0  0  0
 21 47  1  0  0  0  0
 22 23  1  0  0  0  0
 23 24  1  0  0  0  0
 24 25  1  0  0  0  0
 24 48  1  0  0  0  0
 24 49  1  0  0  0  0
 25 26  1  0  0  0  0
 25 30  2  0  0  0  0
 26 27  2  0  0  0  0
 26 50  1  0  0  0  0
 27 28  1  0  0  0  0
 27 51  1  0  0  0  0
 28 29  2  0  0  0  0
 28 52  1  0  0  0  0
 29 30  1  0  0  0  0
 29 53  1  0  0  0  0
 30 54  1  0  0  0  0
 31 55  1  0  0  0  0
 31 56  1  0  0  0  0
M  END
