
 OpenBabel03132514253D

 49 54  0  0  0  0  0  0  0  0999 V2000
   -1.7250    2.0220    0.0060 O   0  0  0  0  0  0  0  0  0  0  0  0
   -1.3990    0.8330    0.0140 C   0  0  0  0  0  0  0  0  0  0  0  0
   -2.3160   -0.2890    0.0000 C   0  0  0  0  0  0  0  0  0  0  0  0
   -1.7870   -1.5980   -0.0420 C   0  0  0  0  0  0  0  0  0  0  0  0
   -2.7246   -2.7251   -0.1490 N   0  0  0  0  0  0  0  0  0  0  0  0
   -3.7228   -3.0686   -1.1782 C   0  0  0  0  0  0  0  0  0  0  0  0
   -5.0355   -3.4108   -0.5099 C   0  0  0  0  0  0  0  0  0  0  0  0
   -4.8742   -4.4870    0.4139 O   0  0  0  0  0  0  0  0  0  0  0  0
   -3.9315   -4.1245    1.4231 C   0  0  0  0  0  0  0  0  0  0  0  0
   -2.5712   -3.8288    0.8203 C   0  0  0  0  0  0  0  0  0  0  0  0
   -0.4660   -1.8680    0.0110 O   0  0  0  0  0  0  0  0  0  0  0  0
    0.4530   -0.8340    0.0160 C   0  0  0  0  0  0  0  0  0  0  0  0
    1.7880   -1.2070    0.0160 C   0  0  0  0  0  0  0  0  0  0  0  0
    2.7380   -0.2040   -0.0040 C   0  0  0  0  0  0  0  0  0  0  0  0
    4.2132   -0.5704   -0.0085 C   0  0  0  0  0  0  0  0  0  0  0  0
    5.0612   -0.1457    1.0215 C   0  0  0  0  0  0  0  0  0  0  0  0
    6.4419   -0.4175    0.9564 C   0  0  0  0  0  0  0  0  0  0  0  0
    6.9788   -1.1437   -0.1128 C   0  0  0  0  0  0  0  0  0  0  0  0
    6.1205   -1.6446   -1.1147 C   0  0  0  0  0  0  0  0  0  0  0  0
    4.7558   -1.3377   -1.0377 C   0  0  0  0  0  0  0  0  0  0  0  0
    3.8044   -2.0973   -2.2910 S   0  0  0  0  0  0  0  0  0  0  0  0
    5.2277   -2.8579   -2.9445 C   0  0  0  0  0  0  0  0  0  0  0  0
    5.2326   -3.7128   -4.0471 C   0  0  0  0  0  0  0  0  0  0  0  0
    6.4222   -4.2425   -4.4610 C   0  0  0  0  0  0  0  0  0  0  0  0
    7.5985   -3.9339   -3.7964 C   0  0  0  0  0  0  0  0  0  0  0  0
    7.6013   -3.0958   -2.7048 C   0  0  0  0  0  0  0  0  0  0  0  0
    6.4021   -2.5320   -2.2436 C   0  0  0  0  0  0  0  0  0  0  0  0
    2.3660    1.1330   -0.0200 C   0  0  0  0  0  0  0  0  0  0  0  0
    1.0310    1.4770   -0.0130 C   0  0  0  0  0  0  0  0  0  0  0  0
    0.0440    0.4840    0.0090 C   0  0  0  0  0  0  0  0  0  0  0  0
   -3.3737   -0.1289    0.0211 H   0  0  0  0  0  0  0  0  0  0  0  0
   -3.3791   -3.9099   -1.7429 H   0  0  0  0  0  0  0  0  0  0  0  0
   -3.8624   -2.2338   -1.8329 H   0  0  0  0  0  0  0  0  0  0  0  0
   -5.3797   -2.5508    0.0255 H   0  0  0  0  0  0  0  0  0  0  0  0
   -5.7453   -3.6955   -1.2583 H   0  0  0  0  0  0  0  0  0  0  0  0
   -3.8304   -4.9442    2.1033 H   0  0  0  0  0  0  0  0  0  0  0  0
   -4.2842   -3.2528    1.9336 H   0  0  0  0  0  0  0  0  0  0  0  0
   -2.1874   -4.6993    0.3306 H   0  0  0  0  0  0  0  0  0  0  0  0
   -1.8882   -3.5406    1.5919 H   0  0  0  0  0  0  0  0  0  0  0  0
    2.0735   -2.2381    0.0310 H   0  0  0  0  0  0  0  0  0  0  0  0
    4.6601    0.3860    1.8590 H   0  0  0  0  0  0  0  0  0  0  0  0
    7.0875   -0.0647    1.7333 H   0  0  0  0  0  0  0  0  0  0  0  0
    8.0329   -1.3179   -0.1701 H   0  0  0  0  0  0  0  0  0  0  0  0
    4.3228   -3.9489   -4.5584 H   0  0  0  0  0  0  0  0  0  0  0  0
    6.4458   -4.9004   -5.3045 H   0  0  0  0  0  0  0  0  0  0  0  0
    8.5210   -4.3549   -4.1380 H   0  0  0  0  0  0  0  0  0  0  0  0
    8.5214   -2.8733   -2.2060 H   0  0  0  0  0  0  0  0  0  0  0  0
    3.1152    1.8967   -0.0378 H   0  0  0  0  0  0  0  0  0  0  0  0
    0.7475    2.5087   -0.0244 H   0  0  0  0  0  0  0  0  0  0  0  0
  1  2  2  0  0  0  0
  2  3  1  0  0  0  0
  2 30  1  0  0  0  0
  3  4  2  0  0  0  0
  3 31  1  0  0  0  0
  4  5  1  0  0  0  0
  4 11  1  0  0  0  0
  5  6  1  0  0  0  0
  5 10  1  0  0  0  0
  6  7  1  0  0  0  0
  6 32  1  0  0  0  0
  6 33  1  0  0  0  0
  7  8  1  0  0  0  0
  7 34  1  0  0  0  0
  7 35  1  0  0  0  0
  8  9  1  0  0  0  0
  9 10  1  0  0  0  0
  9 36  1  0  0  0  0
  9 37  1  0  0  0  0
 10 38  1  0  0  0  0
 10 39  1  0  0  0  0
 11 12  1  0  0  0  0
 12 13  1  0  0  0  0
 12 30  2  0  0  0  0
 13 14  2  0  0  0  0
 13 40  1  0  0  0  0
 14 15  1  0  0  0  0
 14 28  1  0  0  0  0
 15 16  1  0  0  0  0
 15 20  2  0  0  0  0
 16 17  2  0  0  0  0
 16 41  1  0  0  0  0
 17 18  1  0  0  0  0
 17 42  1  0  0  0  0
 18 19  2  0  0  0  0
 18 43  1  0  0  0  0
 19 20  1  0  0  0  0
 19 27  1  0  0  0  0
 20 21  1  0  0  0  0
 21 22  1  0  0  0  0
 22 23  1  0  0  0  0
 22 27  2  0  0  0  0
 23 24  2  0  0  0  0
 23 44  1  0  0  0  0
 24 25  1  0  0  0  0
 24 45  1  0  0  0  0
 25 26  2  0  0  0  0
 25 46  1  0  0  0  0
 26 27  1  0  0  0  0
 26 47  1  0  0  0  0
 28 29  2  0  0  0  0
 28 48  1  0  0  0  0
 29 30  1  0  0  0  0
 29 49  1  0  0  0  0
M  END
