
 OpenBabel03132514253D

 41 44  0  0  0  0  0  0  0  0999 V2000
    1.0577   -0.0181   -0.0797 O   0  0  0  0  0  0  0  0  0  0  0  0
    2.3286   -0.0181   -0.0797 C   0  0  0  0  0  0  0  0  0  0  0  0
    3.0386    0.3984   -1.2367 O   0  0  0  0  0  0  0  0  0  0  0  0
    3.0886   -0.4640    1.1589 C   0  0  0  0  0  0  0  0  0  0  0  0
    4.2213    0.2385    1.5682 C   0  0  0  0  0  0  0  0  0  0  0  0
    4.9492   -0.1845    2.6688 C   0  0  0  0  0  0  0  0  0  0  0  0
    6.1084    0.5329    3.0662 O   0  0  0  0  0  0  0  0  0  0  0  0
    6.8576    0.1034    4.1934 C   0  0  0  0  0  0  0  0  0  0  0  0
    7.9946    0.8071    4.5832 N   0  0  0  0  0  0  0  0  0  0  0  0
    8.7702    0.3624    5.7501 C   0  0  0  0  0  0  0  0  0  0  0  0
    9.0602   -0.9906    5.8929 C   0  0  0  0  0  0  0  0  0  0  0  0
    9.7201   -1.4160    7.0337 C   0  0  0  0  0  0  0  0  0  0  0  0
   10.0623   -3.1098    7.2097 Cl  0  0  0  0  0  0  0  0  0  0  0  0
   10.1450   -0.5314    8.0138 C   0  0  0  0  0  0  0  0  0  0  0  0
   10.9236   -1.0223    9.2234 C   0  0  0  0  0  0  0  0  0  0  0  0
   11.5916   -1.4433   10.2609 C   0  0  0  0  0  0  0  0  0  0  0  0
   12.3703   -1.9342   11.4705 C   0  0  0  0  0  0  0  0  0  0  0  0
   13.0605   -1.0347   12.3299 C   0  0  0  0  0  0  0  0  0  0  0  0
   13.9379   -1.5454   13.3004 C   0  0  0  0  0  0  0  0  0  0  0  0
   13.9151   -2.8117   13.5963 C   0  0  0  0  0  0  0  0  0  0  0  0
   13.0085   -3.6666   12.9555 C   0  0  0  0  0  0  0  0  0  0  0  0
   12.3459   -3.2312   11.7821 C   0  0  0  0  0  0  0  0  0  0  0  0
    9.8389    0.8202    7.8600 C   0  0  0  0  0  0  0  0  0  0  0  0
    9.1515    1.2607    6.7404 C   0  0  0  0  0  0  0  0  0  0  0  0
    6.4553   -1.0216    4.9093 N   0  0  0  0  0  0  0  0  0  0  0  0
    4.5515   -1.3069    3.3865 C   0  0  0  0  0  0  0  0  0  0  0  0
    3.4289   -2.0238    2.9856 C   0  0  0  0  0  0  0  0  0  0  0  0
    2.7327   -1.6037    1.8647 C   0  0  0  0  0  0  0  0  0  0  0  0
    1.3423   -2.5160    1.3629 Cl  0  0  0  0  0  0  0  0  0  0  0  0
    4.0386    0.3984   -1.2367 H   0  0  0  0  0  0  0  0  0  0  0  0
    4.5304    1.1095    1.0291 H   0  0  0  0  0  0  0  0  0  0  0  0
    8.7784   -1.6906    5.1343 H   0  0  0  0  0  0  0  0  0  0  0  0
   12.9126    0.0210   12.2377 H   0  0  0  0  0  0  0  0  0  0  0  0
   14.6252   -0.8925   13.7966 H   0  0  0  0  0  0  0  0  0  0  0  0
   14.5896   -3.2012   14.3300 H   0  0  0  0  0  0  0  0  0  0  0  0
   12.8180   -4.6426   13.3504 H   0  0  0  0  0  0  0  0  0  0  0  0
   11.8340   -3.9313   11.1554 H   0  0  0  0  0  0  0  0  0  0  0  0
   10.1365    1.5216    8.6112 H   0  0  0  0  0  0  0  0  0  0  0  0
    5.6227   -1.5370    4.6239 H   0  0  0  0  0  0  0  0  0  0  0  0
    5.1080   -1.6187    4.2456 H   0  0  0  0  0  0  0  0  0  0  0  0
    3.1087   -2.8850    3.5340 H   0  0  0  0  0  0  0  0  0  0  0  0
  1  2  2  0  0  0  0
  2  3  1  0  0  0  0
  2  4  1  0  0  0  0
  3 30  1  0  0  0  0
  4  5  1  0  0  0  0
  4 28  2  0  0  0  0
  5  6  2  0  0  0  0
  5 31  1  0  0  0  0
  6  7  1  0  0  0  0
  6 26  1  0  0  0  0
  7  8  1  0  0  0  0
  8  9  2  0  0  0  0
  8 25  1  0  0  0  0
  9 10  1  0  0  0  0
 10 11  1  0  0  0  0
 10 24  2  0  0  0  0
 11 12  2  0  0  0  0
 11 32  1  0  0  0  0
 12 13  1  0  0  0  0
 12 14  1  0  0  0  0
 14 15  1  0  0  0  0
 14 23  2  0  0  0  0
 15 16  3  0  0  0  0
 16 17  1  0  0  0  0
 17 18  1  0  0  0  0
 17 22  2  0  0  0  0
 18 19  2  0  0  0  0
 18 33  1  0  0  0  0
 19 20  1  0  0  0  0
 19 34  1  0  0  0  0
 20 21  2  0  0  0  0
 20 35  1  0  0  0  0
 21 22  1  0  0  0  0
 21 36  1  0  0  0  0
 22 37  1  0  0  0  0
 23 24  1  0  0  0  0
 23 38  1  0  0  0  0
 24 25  1  0  0  0  0
 25 39  1  0  0  0  0
 26 27  2  0  0  0  0
 26 40  1  0  0  0  0
 27 28  1  0  0  0  0
 27 41  1  0  0  0  0
 28 29  1  0  0  0  0
M  END
