
 OpenBabel03132514253D

 76 80  0  0  0  0  0  0  0  0999 V2000
    1.0428   -0.0873    0.0234 C   0  0  0  0  0  0  0  0  0  0  0  0
    0.5361   -1.3242    0.7471 C   0  0  0  0  0  0  0  0  0  0  0  0
    1.0261   -1.3161    2.1330 N   0  0  0  0  0  0  0  0  0  0  0  0
    0.5361   -2.5123    2.8330 C   0  0  0  0  0  0  0  0  0  0  0  0
    1.0428   -3.7576    2.1237 C   0  0  0  0  0  0  0  0  0  0  0  0
    2.4961   -1.3161    2.1330 C   0  0  0  0  0  0  0  0  0  0  0  0
    3.0028   -2.5613    1.4237 C   0  0  0  0  0  0  0  0  0  0  0  0
    2.5128   -2.5694    0.0378 N   0  0  0  0  0  0  0  0  0  0  0  0
    3.4681   -2.5759   -1.0795 C   0  0  0  0  0  0  0  0  0  0  0  0
    3.0444   -2.5829   -2.2777 O   0  0  0  0  0  0  0  0  0  0  0  0
    4.9625   -2.5743   -0.8017 C   0  0  0  0  0  0  0  0  0  0  0  0
    5.6160   -3.3525    0.1213 C   0  0  0  0  0  0  0  0  0  0  0  0
    5.1106   -4.3984    1.0541 C   0  0  0  0  0  0  0  0  0  0  0  0
    6.9386   -3.0254    0.0676 N   0  0  0  0  0  0  0  0  0  0  0  0
    7.1570   -2.0645   -0.8900 C   0  0  0  0  0  0  0  0  0  0  0  0
    8.4983   -1.4503   -1.2559 C   0  0  0  0  0  0  0  0  0  0  0  0
    9.4868   -2.2420   -1.7073 C   0  0  0  0  0  0  0  0  0  0  0  0
    9.2653   -3.7028   -1.9293 C   0  0  0  0  0  0  0  0  0  0  0  0
    8.2497   -4.3617   -1.6998 O   0  0  0  0  0  0  0  0  0  0  0  0
   10.4085   -4.2023   -2.4603 N   0  0  0  0  0  0  0  0  0  0  0  0
   11.3818   -3.2067   -2.5984 C   0  0  0  0  0  0  0  0  0  0  0  0
   12.6546   -3.3650   -3.0942 C   0  0  0  0  0  0  0  0  0  0  0  0
   13.4831   -2.2485   -3.1009 C   0  0  0  0  0  0  0  0  0  0  0  0
   13.0203   -1.0437   -2.5910 C   0  0  0  0  0  0  0  0  0  0  0  0
   11.7224   -0.9033   -2.1165 C   0  0  0  0  0  0  0  0  0  0  0  0
   11.2429    0.4370   -1.5834 C   0  0  0  0  0  0  0  0  0  0  0  0
   11.3638    1.5372   -2.4161 C   0  0  0  0  0  0  0  0  0  0  0  0
   11.2875    2.7783   -1.7409 C   0  0  0  0  0  0  0  0  0  0  0  0
   10.7952    2.9411   -0.5263 C   0  0  0  0  0  0  0  0  0  0  0  0
   10.4258    4.3143    0.0107 C   0  0  0  0  0  0  0  0  0  0  0  0
    9.5499    5.0958   -0.7245 C   0  0  0  0  0  0  0  0  0  0  0  0
    9.5872    6.4697   -0.3885 C   0  0  0  0  0  0  0  0  0  0  0  0
   10.1005    6.9541    0.7277 C   0  0  0  0  0  0  0  0  0  0  0  0
   10.9027    6.1102    1.4445 C   0  0  0  0  0  0  0  0  0  0  0  0
   11.0201    4.7850    1.1009 C   0  0  0  0  0  0  0  0  0  0  0  0
   10.6357    1.8080    0.2221 C   0  0  0  0  0  0  0  0  0  0  0  0
   10.8194    0.5639   -0.3313 C   0  0  0  0  0  0  0  0  0  0  0  0
   10.8658   -1.9966   -2.1327 C   0  0  0  0  0  0  0  0  0  0  0  0
    5.9438   -1.7597   -1.4565 C   0  0  0  0  0  0  0  0  0  0  0  0
    5.6728   -0.7344   -2.5283 C   0  0  0  0  0  0  0  0  0  0  0  0
    0.6861    0.7893    0.5227 H   0  0  0  0  0  0  0  0  0  0  0  0
    0.6861   -0.0932   -0.9854 H   0  0  0  0  0  0  0  0  0  0  0  0
    2.1128   -0.0873    0.0234 H   0  0  0  0  0  0  0  0  0  0  0  0
   -0.5339   -1.3242    0.7471 H   0  0  0  0  0  0  0  0  0  0  0  0
    0.8928   -2.2008    0.2478 H   0  0  0  0  0  0  0  0  0  0  0  0
    0.8928   -2.5065    3.8417 H   0  0  0  0  0  0  0  0  0  0  0  0
   -0.5339   -2.5123    2.8330 H   0  0  0  0  0  0  0  0  0  0  0  0
    2.1128   -3.7576    2.1237 H   0  0  0  0  0  0  0  0  0  0  0  0
    0.6861   -4.6283    2.6331 H   0  0  0  0  0  0  0  0  0  0  0  0
    0.6861   -3.7634    1.1149 H   0  0  0  0  0  0  0  0  0  0  0  0
    2.8528   -0.4454    1.6236 H   0  0  0  0  0  0  0  0  0  0  0  0
    2.8528   -1.3103    3.1418 H   0  0  0  0  0  0  0  0  0  0  0  0
    4.0728   -2.5613    1.4237 H   0  0  0  0  0  0  0  0  0  0  0  0
    2.6461   -3.4321    1.9332 H   0  0  0  0  0  0  0  0  0  0  0  0
    1.5100   -2.5705   -0.1486 H   0  0  0  0  0  0  0  0  0  0  0  0
    4.3859   -3.9682    1.7134 H   0  0  0  0  0  0  0  0  0  0  0  0
    4.6574   -5.1884    0.4925 H   0  0  0  0  0  0  0  0  0  0  0  0
    5.9256   -4.7898    1.6264 H   0  0  0  0  0  0  0  0  0  0  0  0
    7.6638   -3.4363    0.6555 H   0  0  0  0  0  0  0  0  0  0  0  0
    8.6546   -0.3965   -1.1550 H   0  0  0  0  0  0  0  0  0  0  0  0
   10.5417   -5.1783   -2.7251 H   0  0  0  0  0  0  0  0  0  0  0  0
   12.9944   -4.3111   -3.4607 H   0  0  0  0  0  0  0  0  0  0  0  0
   14.4743   -2.3179   -3.4980 H   0  0  0  0  0  0  0  0  0  0  0  0
   13.6799   -0.2017   -2.5625 H   0  0  0  0  0  0  0  0  0  0  0  0
   11.5023    1.4560   -3.4740 H   0  0  0  0  0  0  0  0  0  0  0  0
   11.6541    3.6452   -2.2497 H   0  0  0  0  0  0  0  0  0  0  0  0
    8.9037    4.6967   -1.4782 H   0  0  0  0  0  0  0  0  0  0  0  0
    9.1705    7.1646   -1.0874 H   0  0  0  0  0  0  0  0  0  0  0  0
    9.8995    7.9533    1.0536 H   0  0  0  0  0  0  0  0  0  0  0  0
   11.4469    6.4872    2.2851 H   0  0  0  0  0  0  0  0  0  0  0  0
   11.5956    4.1265    1.7173 H   0  0  0  0  0  0  0  0  0  0  0  0
   10.3638    1.8914    1.2536 H   0  0  0  0  0  0  0  0  0  0  0  0
   10.6193   -0.3106    0.2519 H   0  0  0  0  0  0  0  0  0  0  0  0
    5.2168   -1.2112   -3.3708 H   0  0  0  0  0  0  0  0  0  0  0  0
    5.0151    0.0173   -2.1447 H   0  0  0  0  0  0  0  0  0  0  0  0
    6.5942   -0.2819   -2.8302 H   0  0  0  0  0  0  0  0  0  0  0  0
  1  2  1  0  0  0  0
  1 41  1  0  0  0  0
  1 42  1  0  0  0  0
  1 43  1  0  0  0  0
  2  3  1  0  0  0  0
  2 44  1  0  0  0  0
  2 45  1  0  0  0  0
  3  4  1  0  0  0  0
  3  6  1  0  0  0  0
  4  5  1  0  0  0  0
  4 46  1  0  0  0  0
  4 47  1  0  0  0  0
  5 48  1  0  0  0  0
  5 49  1  0  0  0  0
  5 50  1  0  0  0  0
  6  7  1  0  0  0  0
  6 51  1  0  0  0  0
  6 52  1  0  0  0  0
  7  8  1  0  0  0  0
  7 53  1  0  0  0  0
  7 54  1  0  0  0  0
  8  9  1  0  0  0  0
  8 55  1  0  0  0  0
  9 10  2  0  0  0  0
  9 11  1  0  0  0  0
 11 12  2  0  0  0  0
 11 39  1  0  0  0  0
 12 13  1  0  0  0  0
 12 14  1  0  0  0  0
 13 56  1  0  0  0  0
 13 57  1  0  0  0  0
 13 58  1  0  0  0  0
 14 15  1  0  0  0  0
 14 59  1  0  0  0  0
 15 16  1  0  0  0  0
 15 39  2  0  0  0  0
 16 17  2  0  0  0  0
 16 60  1  0  0  0  0
 17 18  1  0  0  0  0
 17 38  1  0  0  0  0
 18 19  2  0  0  0  0
 18 20  1  0  0  0  0
 20 21  1  0  0  0  0
 20 61  1  0  0  0  0
 21 22  1  0  0  0  0
 21 38  2  0  0  0  0
 22 23  2  0  0  0  0
 22 62  1  0  0  0  0
 23 24  1  0  0  0  0
 23 63  1  0  0  0  0
 24 25  2  0  0  0  0
 24 64  1  0  0  0  0
 25 26  1  0  0  0  0
 25 38  1  0  0  0  0
 26 27  1  0  0  0  0
 26 37  2  0  0  0  0
 27 28  2  0  0  0  0
 27 65  1  0  0  0  0
 28 29  1  0  0  0  0
 28 66  1  0  0  0  0
 29 30  1  0  0  0  0
 29 36  2  0  0  0  0
 30 31  1  0  0  0  0
 30 35  2  0  0  0  0
 31 32  2  0  0  0  0
 31 67  1  0  0  0  0
 32 33  1  0  0  0  0
 32 68  1  0  0  0  0
 33 34  2  0  0  0  0
 33 69  1  0  0  0  0
 34 35  1  0  0  0  0
 34 70  1  0  0  0  0
 35 71  1  0  0  0  0
 36 37  1  0  0  0  0
 36 72  1  0  0  0  0
 37 73  1  0  0  0  0
 39 40  1  0  0  0  0
 40 74  1  0  0  0  0
 40 75  1  0  0  0  0
 40 76  1  0  0  0  0
M  END
