
 OpenBabel03132514253D

 58 60  0  0  0  0  0  0  0  0999 V2000
    1.0451    0.0113    0.0885 C   0  0  0  0  0  0  0  0  0  0  0  0
    0.5718    1.1663    0.7655 O   0  0  0  0  0  0  0  0  0  0  0  0
    0.9148    1.3822    2.1264 C   0  0  0  0  0  0  0  0  0  0  0  0
   -0.0619    1.7326    3.0165 C   0  0  0  0  0  0  0  0  0  0  0  0
    0.2451    1.8765    4.3881 C   0  0  0  0  0  0  0  0  0  0  0  0
   -0.7474    2.1981    5.2786 N   0  0  0  0  0  0  0  0  0  0  0  0
   -0.3921    2.3176    6.5282 C   0  0  0  0  0  0  0  0  0  0  0  0
    0.8680    2.1712    7.0419 N   0  0  0  0  0  0  0  0  0  0  0  0
    1.8293    1.8778    6.1999 C   0  0  0  0  0  0  0  0  0  0  0  0
    3.2025    1.7366    6.7050 N   0  0  0  0  0  0  0  0  0  0  0  0
    3.4823    1.9239    8.1359 C   0  0  0  0  0  0  0  0  0  0  0  0
    4.3213    2.9355    8.5557 C   0  0  0  0  0  0  0  0  0  0  0  0
    4.5611    3.1558    9.9059 C   0  0  0  0  0  0  0  0  0  0  0  0
    3.9385    2.3358   10.8456 C   0  0  0  0  0  0  0  0  0  0  0  0
    3.0975    1.3235   10.4234 C   0  0  0  0  0  0  0  0  0  0  0  0
    2.2866    0.3269   11.5824 Cl  0  0  0  0  0  0  0  0  0  0  0  0
    2.8832    1.1277    9.0779 C   0  0  0  0  0  0  0  0  0  0  0  0
    2.0437    0.1510    8.6774 F   0  0  0  0  0  0  0  0  0  0  0  0
    1.5810    1.6920    4.8101 C   0  0  0  0  0  0  0  0  0  0  0  0
    2.5761    1.3444    3.8684 C   0  0  0  0  0  0  0  0  0  0  0  0
    2.2422    1.1867    2.5536 C   0  0  0  0  0  0  0  0  0  0  0  0
    3.3105    0.7976    1.5447 C   0  0  0  0  0  0  0  0  0  0  0  0
    4.3637    1.8230    1.5262 N   0  0  0  0  0  0  0  0  0  0  0  0
    5.3968    1.4467    0.5506 C   0  0  0  0  0  0  0  0  0  0  0  0
    3.7802    3.1179    1.1472 C   0  0  0  0  0  0  0  0  0  0  0  0
    3.1562    3.0075   -0.2344 C   0  0  0  0  0  0  0  0  0  0  0  0
    2.1030    1.9822   -0.2159 N   0  0  0  0  0  0  0  0  0  0  0  0
    1.4995    1.8754   -1.5520 C   0  0  0  0  0  0  0  0  0  0  0  0
    2.6865    0.6873    0.1631 C   0  0  0  0  0  0  0  0  0  0  0  0
    2.7119    3.5070    2.1561 C   0  0  0  0  0  0  0  0  0  0  0  0
    2.8464    4.7522    2.9256 N   0  0  0  0  0  0  0  0  0  0  0  0
    1.7024    2.7557    2.3342 O   0  0  0  0  0  0  0  0  0  0  0  0
    0.6884    0.0179   -0.9203 H   0  0  0  0  0  0  0  0  0  0  0  0
    0.6884   -0.8656    0.5872 H   0  0  0  0  0  0  0  0  0  0  0  0
    2.1151    0.0113    0.0885 H   0  0  0  0  0  0  0  0  0  0  0  0
   -1.0618    1.8983    2.6734 H   0  0  0  0  0  0  0  0  0  0  0  0
   -1.1682    2.5553    7.2254 H   0  0  0  0  0  0  0  0  0  0  0  0
    3.9613    1.5085    6.0626 H   0  0  0  0  0  0  0  0  0  0  0  0
    4.7955    3.5611    7.8286 H   0  0  0  0  0  0  0  0  0  0  0  0
    5.2140    3.9432   10.2201 H   0  0  0  0  0  0  0  0  0  0  0  0
    4.1111    2.4896   11.8903 H   0  0  0  0  0  0  0  0  0  0  0  0
    3.5886    1.2050    4.1850 H   0  0  0  0  0  0  0  0  0  0  0  0
    3.7352   -0.1449    1.8206 H   0  0  0  0  0  0  0  0  0  0  0  0
    2.8712    0.7199    0.5721 H   0  0  0  0  0  0  0  0  0  0  0  0
    4.9576    1.3690   -0.4220 H   0  0  0  0  0  0  0  0  0  0  0  0
    6.1634    2.1931    0.5371 H   0  0  0  0  0  0  0  0  0  0  0  0
    5.8215    0.5042    0.8264 H   0  0  0  0  0  0  0  0  0  0  0  0
    4.5468    3.8643    1.1338 H   0  0  0  0  0  0  0  0  0  0  0  0
    2.7315    3.9501   -0.5102 H   0  0  0  0  0  0  0  0  0  0  0  0
    3.9082    2.7337   -0.9445 H   0  0  0  0  0  0  0  0  0  0  0  0
    2.2516    1.6015   -2.2622 H   0  0  0  0  0  0  0  0  0  0  0  0
    0.7330    1.1291   -1.5386 H   0  0  0  0  0  0  0  0  0  0  0  0
    1.0748    2.8180   -1.8279 H   0  0  0  0  0  0  0  0  0  0  0  0
    3.4385    0.4134   -0.5471 H   0  0  0  0  0  0  0  0  0  0  0  0
    3.1258    0.7649    1.1357 H   0  0  0  0  0  0  0  0  0  0  0  0
    1.9199   -0.0591    0.1766 H   0  0  0  0  0  0  0  0  0  0  0  0
    2.1295    5.0133    3.6026 H   0  0  0  0  0  0  0  0  0  0  0  0
    3.6566    5.3551    2.7826 H   0  0  0  0  0  0  0  0  0  0  0  0
  1  2  1  0  0  0  0
  1 33  1  0  0  0  0
  1 34  1  0  0  0  0
  1 35  1  0  0  0  0
  2  3  1  0  0  0  0
  3  4  1  0  0  0  0
  3 21  2  0  0  0  0
  4  5  2  0  0  0  0
  4 36  1  0  0  0  0
  5  6  1  0  0  0  0
  5 19  1  0  0  0  0
  6  7  2  0  0  0  0
  7  8  1  0  0  0  0
  7 37  1  0  0  0  0
  8  9  2  0  0  0  0
  9 10  1  0  0  0  0
  9 19  1  0  0  0  0
 10 11  1  0  0  0  0
 10 38  1  0  0  0  0
 11 12  1  0  0  0  0
 11 17  2  0  0  0  0
 12 13  2  0  0  0  0
 12 39  1  0  0  0  0
 13 14  1  0  0  0  0
 13 40  1  0  0  0  0
 14 15  2  0  0  0  0
 14 41  1  0  0  0  0
 15 16  1  0  0  0  0
 15 17  1  0  0  0  0
 17 18  1  0  0  0  0
 19 20  2  0  0  0  0
 20 21  1  0  0  0  0
 20 42  1  0  0  0  0
 21 22  1  0  0  0  0
 22 23  1  0  0  0  0
 22 43  1  0  0  0  0
 22 44  1  0  0  0  0
 23 24  1  0  0  0  0
 23 25  1  0  0  0  0
 24 45  1  0  0  0  0
 24 46  1  0  0  0  0
 24 47  1  0  0  0  0
 25 26  1  0  0  0  0
 25 30  1  0  0  0  0
 25 48  1  0  0  0  0
 26 27  1  0  0  0  0
 26 49  1  0  0  0  0
 26 50  1  0  0  0  0
 27 28  1  0  0  0  0
 27 29  1  0  0  0  0
 28 51  1  0  0  0  0
 28 52  1  0  0  0  0
 28 53  1  0  0  0  0
 29 54  1  0  0  0  0
 29 55  1  0  0  0  0
 29 56  1  0  0  0  0
 30 31  1  0  0  0  0
 30 32  2  0  0  0  0
 31 57  1  0  0  0  0
 31 58  1  0  0  0  0
M  END
