
 OpenBabel03132514253D

 60 66  0  0  0  0  0  0  0  0999 V2000
    0.9776   -0.0658    0.0719 O   0  0  0  0  0  0  0  0  0  0  0  0
    2.2485   -0.0658    0.0719 C   0  0  0  0  0  0  0  0  0  0  0  0
    3.0511    1.0262    0.0720 C   0  0  0  0  0  0  0  0  0  0  0  0
    4.3216    0.5546    0.0831 C   0  0  0  0  0  0  0  0  0  0  0  0
    4.2534   -0.7486    0.0826 N   0  0  0  0  0  0  0  0  0  0  0  0
    5.4091   -1.6570    0.0930 C   0  0  0  0  0  0  0  0  0  0  0  0
    6.3098   -1.6077    1.1441 C   0  0  0  0  0  0  0  0  0  0  0  0
    7.5140   -2.3095    0.9006 C   0  0  0  0  0  0  0  0  0  0  0  0
    7.6712   -3.2235   -0.0395 C   0  0  0  0  0  0  0  0  0  0  0  0
    8.8555   -4.1764   -0.0401 C   0  0  0  0  0  0  0  0  0  0  0  0
    9.0485   -5.0302    1.0334 C   0  0  0  0  0  0  0  0  0  0  0  0
   10.3219   -5.6465    1.0539 C   0  0  0  0  0  0  0  0  0  0  0  0
   11.1323   -5.7261    0.0142 C   0  0  0  0  0  0  0  0  0  0  0  0
   12.3169   -6.6783   -0.0069 C   0  0  0  0  0  0  0  0  0  0  0  0
   13.1478   -6.7317   -1.1235 N   0  0  0  0  0  0  0  0  0  0  0  0
   14.1731   -7.5558   -1.1417 C   0  0  0  0  0  0  0  0  0  0  0  0
   15.0016   -7.6862   -2.1166 N   0  0  0  0  0  0  0  0  0  0  0  0
   15.9020   -8.5801   -1.8110 C   0  0  0  0  0  0  0  0  0  0  0  0
   16.9888   -8.9922   -2.6267 O   0  0  0  0  0  0  0  0  0  0  0  0
   17.8934   -9.9813   -2.1579 C   0  0  0  0  0  0  0  0  0  0  0  0
   17.0970  -11.0434   -1.9561 C   0  0  0  0  0  0  0  0  0  0  0  0
   16.4402  -10.9241   -0.6635 O   0  0  0  0  0  0  0  0  0  0  0  0
   17.3220   -9.9934    0.1909 C   0  0  0  0  0  0  0  0  0  0  0  0
   18.0709  -10.8191    1.2162 C   0  0  0  0  0  0  0  0  0  0  0  0
   17.2549  -11.8679    1.7166 O   0  0  0  0  0  0  0  0  0  0  0  0
   19.1759  -11.3166    0.5956 C   0  0  0  0  0  0  0  0  0  0  0  0
   19.6347  -10.3849   -0.4234 O   0  0  0  0  0  0  0  0  0  0  0  0
   18.4158   -9.5261   -0.8102 C   0  0  0  0  0  0  0  0  0  0  0  0
   15.6083   -9.0426   -0.5714 N   0  0  0  0  0  0  0  0  0  0  0  0
   14.5038   -8.3657   -0.1733 C   0  0  0  0  0  0  0  0  0  0  0  0
   13.8210   -8.5130    1.0862 C   0  0  0  0  0  0  0  0  0  0  0  0
   12.5802   -7.5254    1.1277 C   0  0  0  0  0  0  0  0  0  0  0  0
   11.5183   -7.4572    2.5547 Cl  0  0  0  0  0  0  0  0  0  0  0  0
   10.8485   -4.9059   -1.0422 C   0  0  0  0  0  0  0  0  0  0  0  0
    9.6870   -4.1726   -1.0754 C   0  0  0  0  0  0  0  0  0  0  0  0
    6.7114   -3.2666   -1.0123 C   0  0  0  0  0  0  0  0  0  0  0  0
    5.5674   -2.5125   -0.9102 C   0  0  0  0  0  0  0  0  0  0  0  0
    3.0214   -1.1173    0.0718 N   0  0  0  0  0  0  0  0  0  0  0  0
    2.7444    2.0513    0.0648 H   0  0  0  0  0  0  0  0  0  0  0  0
    5.2157    1.1424    0.0907 H   0  0  0  0  0  0  0  0  0  0  0  0
    6.1127   -1.0861    2.0574 H   0  0  0  0  0  0  0  0  0  0  0  0
    8.3558   -2.0840    1.5214 H   0  0  0  0  0  0  0  0  0  0  0  0
    8.3022   -5.2075    1.7794 H   0  0  0  0  0  0  0  0  0  0  0  0
   10.6512   -6.0782    1.9759 H   0  0  0  0  0  0  0  0  0  0  0  0
   18.7150  -10.1724   -2.8162 H   0  0  0  0  0  0  0  0  0  0  0  0
   16.3568  -11.0835   -2.7277 H   0  0  0  0  0  0  0  0  0  0  0  0
   17.6844  -11.9375   -1.9756 H   0  0  0  0  0  0  0  0  0  0  0  0
   16.7528   -9.2215    0.6653 H   0  0  0  0  0  0  0  0  0  0  0  0
   18.3593  -10.2046    2.0433 H   0  0  0  0  0  0  0  0  0  0  0  0
   16.9710  -12.4586    0.9613 H   0  0  0  0  0  0  0  0  0  0  0  0
   18.9297  -12.2499    0.1337 H   0  0  0  0  0  0  0  0  0  0  0  0
   19.9521  -11.4633    1.3173 H   0  0  0  0  0  0  0  0  0  0  0  0
   18.6476   -8.4815   -0.8153 H   0  0  0  0  0  0  0  0  0  0  0  0
   16.1151   -9.7546   -0.0455 H   0  0  0  0  0  0  0  0  0  0  0  0
   14.1817   -9.2118    1.8118 H   0  0  0  0  0  0  0  0  0  0  0  0
   11.5408   -4.8340   -1.8549 H   0  0  0  0  0  0  0  0  0  0  0  0
    9.4504   -3.5932   -1.9433 H   0  0  0  0  0  0  0  0  0  0  0  0
    6.8532   -3.8968   -1.8654 H   0  0  0  0  0  0  0  0  0  0  0  0
    4.7972   -2.6154   -1.6458 H   0  0  0  0  0  0  0  0  0  0  0  0
    2.6976   -2.0845    0.0643 H   0  0  0  0  0  0  0  0  0  0  0  0
  1  2  2  0  0  0  0
  2  3  1  0  0  0  0
  2 38  1  0  0  0  0
  3  4  2  0  0  0  0
  3 39  1  0  0  0  0
  4  5  1  0  0  0  0
  4 40  1  0  0  0  0
  5  6  1  0  0  0  0
  5 38  1  0  0  0  0
  6  7  1  0  0  0  0
  6 37  2  0  0  0  0
  7  8  2  0  0  0  0
  7 41  1  0  0  0  0
  8  9  1  0  0  0  0
  8 42  1  0  0  0  0
  9 10  1  0  0  0  0
  9 36  2  0  0  0  0
 10 11  1  0  0  0  0
 10 35  2  0  0  0  0
 11 12  2  0  0  0  0
 11 43  1  0  0  0  0
 12 13  1  0  0  0  0
 12 44  1  0  0  0  0
 13 14  1  0  0  0  0
 13 34  2  0  0  0  0
 14 15  1  0  0  0  0
 14 32  2  0  0  0  0
 15 16  2  0  0  0  0
 16 17  1  0  0  0  0
 16 30  1  0  0  0  0
 17 18  2  0  0  0  0
 18 19  1  0  0  0  0
 18 29  1  0  0  0  0
 19 20  1  0  0  0  0
 20 21  1  0  0  0  0
 20 28  1  0  0  0  0
 20 45  1  0  0  0  0
 21 22  1  0  0  0  0
 21 46  1  0  0  0  0
 21 47  1  0  0  0  0
 22 23  1  0  0  0  0
 23 24  1  0  0  0  0
 23 28  1  0  0  0  0
 23 48  1  0  0  0  0
 24 25  1  0  0  0  0
 24 26  1  0  0  0  0
 24 49  1  0  0  0  0
 25 50  1  0  0  0  0
 26 27  1  0  0  0  0
 26 51  1  0  0  0  0
 26 52  1  0  0  0  0
 27 28  1  0  0  0  0
 28 53  1  0  0  0  0
 29 30  1  0  0  0  0
 29 54  1  0  0  0  0
 30 31  2  0  0  0  0
 31 32  1  0  0  0  0
 31 55  1  0  0  0  0
 32 33  1  0  0  0  0
 34 35  1  0  0  0  0
 34 56  1  0  0  0  0
 35 57  1  0  0  0  0
 36 37  1  0  0  0  0
 36 58  1  0  0  0  0
 37 59  1  0  0  0  0
 38 60  1  0  0  0  0
M  END
