
 OpenBabel03132514253D

 52 56  0  0  0  0  0  0  0  0999 V2000
    1.0813   -0.0583   -0.0000 C   0  0  0  0  0  0  0  0  0  0  0  0
    0.5746    0.4969   -1.3212 C   0  0  0  0  0  0  0  0  0  0  0  0
    1.0646   -0.3412   -2.4250 N   0  0  0  0  0  0  0  0  0  0  0  0
    0.1093   -1.0169   -3.3149 C   0  0  0  0  0  0  0  0  0  0  0  0
    0.5330   -1.7415   -4.2692 O   0  0  0  0  0  0  0  0  0  0  0  0
   -1.3851   -0.8489   -3.0937 C   0  0  0  0  0  0  0  0  0  0  0  0
   -2.3343   -1.8370   -3.1115 C   0  0  0  0  0  0  0  0  0  0  0  0
   -3.5603   -1.2889   -2.8923 N   0  0  0  0  0  0  0  0  0  0  0  0
   -3.4626    0.0733   -2.7023 C   0  0  0  0  0  0  0  0  0  0  0  0
   -4.3486    1.0356   -2.4514 N   0  0  0  0  0  0  0  0  0  0  0  0
   -3.9579    2.2930   -2.3013 C   0  0  0  0  0  0  0  0  0  0  0  0
   -2.6012    2.6403   -2.4233 C   0  0  0  0  0  0  0  0  0  0  0  0
   -2.1540    4.0856   -2.2765 C   0  0  0  0  0  0  0  0  0  0  0  0
   -1.5421    4.7868   -3.2090 N   0  0  0  0  0  0  0  0  0  0  0  0
   -1.2894    6.0133   -2.7763 N   0  0  0  0  0  0  0  0  0  0  0  0
   -0.6175    7.0717   -3.5440 C   0  0  0  0  0  0  0  0  0  0  0  0
   -1.7455    6.1279   -1.5299 C   0  0  0  0  0  0  0  0  0  0  0  0
   -1.7709    7.1597   -0.5683 C   0  0  0  0  0  0  0  0  0  0  0  0
   -2.3320    6.9272    0.6382 C   0  0  0  0  0  0  0  0  0  0  0  0
   -2.3701    8.2350    1.8451 Cl  0  0  0  0  0  0  0  0  0  0  0  0
   -2.8681    5.7186    0.9525 C   0  0  0  0  0  0  0  0  0  0  0  0
   -2.8770    4.6947    0.0700 C   0  0  0  0  0  0  0  0  0  0  0  0
   -2.3142    4.8667   -1.1962 C   0  0  0  0  0  0  0  0  0  0  0  0
   -1.7155    1.6761   -2.6703 N   0  0  0  0  0  0  0  0  0  0  0  0
   -2.1010    0.4108   -2.8161 C   0  0  0  0  0  0  0  0  0  0  0  0
   -0.9454    0.4969   -1.3212 C   0  0  0  0  0  0  0  0  0  0  0  0
   -1.5809    1.5888   -1.4593 O   0  0  0  0  0  0  0  0  0  0  0  0
   -1.6804   -0.7661   -1.1614 N   0  0  0  0  0  0  0  0  0  0  0  0
   -2.8545   -1.5377   -1.7884 C   0  0  0  0  0  0  0  0  0  0  0  0
   -3.0000   -2.2576   -0.4381 C   0  0  0  0  0  0  0  0  0  0  0  0
   -3.5632   -3.6657   -0.3354 C   0  0  0  0  0  0  0  0  0  0  0  0
   -4.0305   -4.8337   -0.2502 N   0  0  0  0  0  0  0  0  0  0  0  0
   -1.5097   -1.9599   -0.2040 C   0  0  0  0  0  0  0  0  0  0  0  0
    0.7246   -1.0591    0.1266 H   0  0  0  0  0  0  0  0  0  0  0  0
    0.7246    0.5518    0.8034 H   0  0  0  0  0  0  0  0  0  0  0  0
    2.1513   -0.0583   -0.0000 H   0  0  0  0  0  0  0  0  0  0  0  0
    0.9313    1.4977   -1.4478 H   0  0  0  0  0  0  0  0  0  0  0  0
    2.0674   -0.4540   -2.5734 H   0  0  0  0  0  0  0  0  0  0  0  0
   -2.1415   -2.8771   -3.2725 H   0  0  0  0  0  0  0  0  0  0  0  0
   -4.4339   -1.8149   -2.8715 H   0  0  0  0  0  0  0  0  0  0  0  0
   -4.6818    3.0508   -2.0853 H   0  0  0  0  0  0  0  0  0  0  0  0
   -1.2743    7.9102   -3.6457 H   0  0  0  0  0  0  0  0  0  0  0  0
    0.2712    7.3749   -3.0310 H   0  0  0  0  0  0  0  0  0  0  0  0
   -0.3604    6.7003   -4.5139 H   0  0  0  0  0  0  0  0  0  0  0  0
   -1.3497    8.1174   -0.7925 H   0  0  0  0  0  0  0  0  0  0  0  0
   -3.2941    5.5738    1.9234 H   0  0  0  0  0  0  0  0  0  0  0  0
   -3.3136    3.7561    0.3407 H   0  0  0  0  0  0  0  0  0  0  0  0
   -3.6770   -1.0365   -2.2545 H   0  0  0  0  0  0  0  0  0  0  0  0
   -2.5870   -2.1720   -2.6075 H   0  0  0  0  0  0  0  0  0  0  0  0
   -3.6649   -1.7827    0.2527 H   0  0  0  0  0  0  0  0  0  0  0  0
   -0.7533   -2.7020   -0.3526 H   0  0  0  0  0  0  0  0  0  0  0  0
   -1.2583   -1.6952    0.8018 H   0  0  0  0  0  0  0  0  0  0  0  0
  1  2  1  0  0  0  0
  1 34  1  0  0  0  0
  1 35  1  0  0  0  0
  1 36  1  0  0  0  0
  2  3  1  0  0  0  0
  2 26  1  0  0  0  0
  2 37  1  0  0  0  0
  3  4  1  0  0  0  0
  3 38  1  0  0  0  0
  4  5  2  0  0  0  0
  4  6  1  0  0  0  0
  6  7  2  0  0  0  0
  6 25  1  0  0  0  0
  7  8  1  0  0  0  0
  7 39  1  0  0  0  0
  8  9  1  0  0  0  0
  8 40  1  0  0  0  0
  9 10  1  0  0  0  0
  9 25  2  0  0  0  0
 10 11  2  0  0  0  0
 11 12  1  0  0  0  0
 11 41  1  0  0  0  0
 12 13  1  0  0  0  0
 12 24  2  0  0  0  0
 13 14  2  0  0  0  0
 13 23  1  0  0  0  0
 14 15  1  0  0  0  0
 15 16  1  0  0  0  0
 15 17  1  0  0  0  0
 16 42  1  0  0  0  0
 16 43  1  0  0  0  0
 16 44  1  0  0  0  0
 17 18  1  0  0  0  0
 17 23  2  0  0  0  0
 18 19  2  0  0  0  0
 18 45  1  0  0  0  0
 19 20  1  0  0  0  0
 19 21  1  0  0  0  0
 21 22  2  0  0  0  0
 21 46  1  0  0  0  0
 22 23  1  0  0  0  0
 22 47  1  0  0  0  0
 24 25  1  0  0  0  0
 26 27  2  0  0  0  0
 26 28  1  0  0  0  0
 28 29  1  0  0  0  0
 28 33  1  0  0  0  0
 29 30  1  0  0  0  0
 29 48  1  0  0  0  0
 29 49  1  0  0  0  0
 30 31  1  0  0  0  0
 30 33  1  0  0  0  0
 30 50  1  0  0  0  0
 31 32  3  0  0  0  0
 33 51  1  0  0  0  0
 33 52  1  0  0  0  0
M  END
