
 OpenBabel03132514253D

 53 58  0  0  0  0  0  0  0  0999 V2000
   -3.3500   -0.7160    0.1530 N   0  0  0  0  0  0  0  0  0  0  0  0
   -2.2800   -0.3510   -0.0390 C   0  0  0  0  0  0  0  0  0  0  0  0
   -0.9180    0.1150   -0.1430 C   0  0  0  0  0  0  0  0  0  0  0  0
   -0.6270    1.4910   -0.1210 C   0  0  0  0  0  0  0  0  0  0  0  0
    0.6950    1.8980    0.1290 C   0  0  0  0  0  0  0  0  0  0  0  0
    1.7250    0.9530    0.0580 C   0  0  0  0  0  0  0  0  0  0  0  0
    3.1779    1.3993    0.0772 C   0  0  0  0  0  0  0  0  0  0  0  0
    3.9950    1.0922   -0.9983 C   0  0  0  0  0  0  0  0  0  0  0  0
    5.3728    1.2936   -0.7473 C   0  0  0  0  0  0  0  0  0  0  0  0
    5.8550    2.0285    0.2384 C   0  0  0  0  0  0  0  0  0  0  0  0
    7.3044    2.4856    0.2616 C   0  0  0  0  0  0  0  0  0  0  0  0
    7.7928    3.2738   -0.7615 N   0  0  0  0  0  0  0  0  0  0  0  0
    9.1286    3.6860   -0.7391 C   0  0  0  0  0  0  0  0  0  0  0  0
    9.9519    4.4997   -1.6321 N   0  0  0  0  0  0  0  0  0  0  0  0
   11.1471    4.5675   -1.1230 C   0  0  0  0  0  0  0  0  0  0  0  0
   12.2373    5.2713   -1.6996 O   0  0  0  0  0  0  0  0  0  0  0  0
   12.0635    5.9705   -2.9233 C   0  0  0  0  0  0  0  0  0  0  0  0
   11.1144    6.9071   -2.7653 C   0  0  0  0  0  0  0  0  0  0  0  0
    9.8055    6.3253   -3.0198 O   0  0  0  0  0  0  0  0  0  0  0  0
   10.0408    5.0937   -3.9149 C   0  0  0  0  0  0  0  0  0  0  0  0
    9.6109    5.4170   -5.3307 C   0  0  0  0  0  0  0  0  0  0  0  0
    8.4439    6.2260   -5.3340 O   0  0  0  0  0  0  0  0  0  0  0  0
   10.6519    6.0630   -5.9247 C   0  0  0  0  0  0  0  0  0  0  0  0
   11.9115    5.5811   -5.3786 O   0  0  0  0  0  0  0  0  0  0  0  0
   11.5911    5.0012   -3.9880 C   0  0  0  0  0  0  0  0  0  0  0  0
   11.2032    3.8472    0.0740 N   0  0  0  0  0  0  0  0  0  0  0  0
    9.9627    3.2966    0.3237 C   0  0  0  0  0  0  0  0  0  0  0  0
    9.4532    2.5036    1.3456 C   0  0  0  0  0  0  0  0  0  0  0  0
    8.1350    2.1071    1.3166 C   0  0  0  0  0  0  0  0  0  0  0  0
    7.4855    1.1037    2.6355 Cl  0  0  0  0  0  0  0  0  0  0  0  0
    4.9802    2.3560    1.2369 C   0  0  0  0  0  0  0  0  0  0  0  0
    3.6401    2.0753    1.1225 C   0  0  0  0  0  0  0  0  0  0  0  0
    1.4080   -0.3940   -0.0300 C   0  0  0  0  0  0  0  0  0  0  0  0
    2.4030   -1.2830    0.0430 F   0  0  0  0  0  0  0  0  0  0  0  0
    0.1020   -0.8470   -0.1010 C   0  0  0  0  0  0  0  0  0  0  0  0
   -1.3972    2.2140   -0.2913 H   0  0  0  0  0  0  0  0  0  0  0  0
    0.9112    2.9177    0.3706 H   0  0  0  0  0  0  0  0  0  0  0  0
    3.6184    0.7352   -1.9340 H   0  0  0  0  0  0  0  0  0  0  0  0
    6.0728    0.8174   -1.4016 H   0  0  0  0  0  0  0  0  0  0  0  0
   12.9912    6.4202   -3.2097 H   0  0  0  0  0  0  0  0  0  0  0  0
   11.1479    7.2807   -1.7632 H   0  0  0  0  0  0  0  0  0  0  0  0
   11.2874    7.7085   -3.4530 H   0  0  0  0  0  0  0  0  0  0  0  0
    9.5310    4.2265   -3.5504 H   0  0  0  0  0  0  0  0  0  0  0  0
    9.3866    4.5155   -5.8617 H   0  0  0  0  0  0  0  0  0  0  0  0
    8.6271    7.0774   -4.8425 H   0  0  0  0  0  0  0  0  0  0  0  0
   10.5665    7.1132   -5.7385 H   0  0  0  0  0  0  0  0  0  0  0  0
   10.6286    5.8789   -6.9784 H   0  0  0  0  0  0  0  0  0  0  0  0
   12.0215    4.0314   -3.8499 H   0  0  0  0  0  0  0  0  0  0  0  0
   12.0271    3.7452    0.6665 H   0  0  0  0  0  0  0  0  0  0  0  0
   10.0852    2.2016    2.1544 H   0  0  0  0  0  0  0  0  0  0  0  0
    5.3445    2.8378    2.1201 H   0  0  0  0  0  0  0  0  0  0  0  0
    2.9627    2.4044    1.8826 H   0  0  0  0  0  0  0  0  0  0  0  0
   -0.1214   -1.8932   -0.1231 H   0  0  0  0  0  0  0  0  0  0  0  0
  1  2  3  0  0  0  0
  2  3  1  0  0  0  0
  3  4  1  0  0  0  0
  3 35  2  0  0  0  0
  4  5  2  0  0  0  0
  4 36  1  0  0  0  0
  5  6  1  0  0  0  0
  5 37  1  0  0  0  0
  6  7  1  0  0  0  0
  6 33  2  0  0  0  0
  7  8  1  0  0  0  0
  7 32  2  0  0  0  0
  8  9  2  0  0  0  0
  8 38  1  0  0  0  0
  9 10  1  0  0  0  0
  9 39  1  0  0  0  0
 10 11  1  0  0  0  0
 10 31  2  0  0  0  0
 11 12  1  0  0  0  0
 11 29  2  0  0  0  0
 12 13  2  0  0  0  0
 13 14  1  0  0  0  0
 13 27  1  0  0  0  0
 14 15  2  0  0  0  0
 15 16  1  0  0  0  0
 15 26  1  0  0  0  0
 16 17  1  0  0  0  0
 17 18  1  0  0  0  0
 17 25  1  0  0  0  0
 17 40  1  0  0  0  0
 18 19  1  0  0  0  0
 18 41  1  0  0  0  0
 18 42  1  0  0  0  0
 19 20  1  0  0  0  0
 20 21  1  0  0  0  0
 20 25  1  0  0  0  0
 20 43  1  0  0  0  0
 21 22  1  0  0  0  0
 21 23  1  0  0  0  0
 21 44  1  0  0  0  0
 22 45  1  0  0  0  0
 23 24  1  0  0  0  0
 23 46  1  0  0  0  0
 23 47  1  0  0  0  0
 24 25  1  0  0  0  0
 25 48  1  0  0  0  0
 26 27  1  0  0  0  0
 26 49  1  0  0  0  0
 27 28  2  0  0  0  0
 28 29  1  0  0  0  0
 28 50  1  0  0  0  0
 29 30  1  0  0  0  0
 31 32  1  0  0  0  0
 31 51  1  0  0  0  0
 32 52  1  0  0  0  0
 33 34  1  0  0  0  0
 33 35  1  0  0  0  0
 35 53  1  0  0  0  0
M  END
