
 OpenBabel03132514253D

 56 59  0  0  0  0  0  0  0  0999 V2000
    0.9073   -0.0372    0.0047 C   0  0  0  0  0  0  0  0  0  0  0  0
    0.4340    0.2320   -1.3067 O   0  0  0  0  0  0  0  0  0  0  0  0
    0.7770    1.4510   -1.9491 C   0  0  0  0  0  0  0  0  0  0  0  0
   -0.2044    2.0317   -2.7032 C   0  0  0  0  0  0  0  0  0  0  0  0
    0.0756    3.1877   -3.4657 C   0  0  0  0  0  0  0  0  0  0  0  0
   -0.9228    3.7817   -4.1950 N   0  0  0  0  0  0  0  0  0  0  0  0
   -0.5927    4.8435   -4.8772 C   0  0  0  0  0  0  0  0  0  0  0  0
    0.6471    5.4182   -4.9544 N   0  0  0  0  0  0  0  0  0  0  0  0
    1.6144    4.8527   -4.2735 C   0  0  0  0  0  0  0  0  0  0  0  0
    2.9676    5.4221   -4.3480 N   0  0  0  0  0  0  0  0  0  0  0  0
    3.2209    6.6091   -5.1774 C   0  0  0  0  0  0  0  0  0  0  0  0
    4.2393    6.5554   -6.1067 C   0  0  0  0  0  0  0  0  0  0  0  0
    4.6200    7.6842   -6.8208 C   0  0  0  0  0  0  0  0  0  0  0  0
    3.9556    8.8873   -6.5880 C   0  0  0  0  0  0  0  0  0  0  0  0
    2.9350    8.9391   -5.6575 C   0  0  0  0  0  0  0  0  0  0  0  0
    2.0755   10.4170   -5.3911 Cl  0  0  0  0  0  0  0  0  0  0  0  0
    2.5836    7.8040   -4.9626 C   0  0  0  0  0  0  0  0  0  0  0  0
    1.5719    7.8604   -4.0725 F   0  0  0  0  0  0  0  0  0  0  0  0
    1.3916    3.7026   -3.4640 C   0  0  0  0  0  0  0  0  0  0  0  0
    2.3927    3.0758   -2.6875 C   0  0  0  0  0  0  0  0  0  0  0  0
    2.0839    1.9752   -1.9404 C   0  0  0  0  0  0  0  0  0  0  0  0
    3.1579    1.3116   -1.0938 C   0  0  0  0  0  0  0  0  0  0  0  0
    3.3591   -0.0751   -1.4992 N   0  0  0  0  0  0  0  0  0  0  0  0
    4.3919   -0.7080   -0.7047 C   0  0  0  0  0  0  0  0  0  0  0  0
    4.5426   -2.1799   -1.0568 C   0  0  0  0  0  0  0  0  0  0  0  0
    4.7613   -2.3746   -2.4846 N   0  0  0  0  0  0  0  0  0  0  0  0
    6.1419   -1.9802   -2.7998 C   0  0  0  0  0  0  0  0  0  0  0  0
    3.8703   -1.6123   -3.3188 C   0  0  0  0  0  0  0  0  0  0  0  0
    3.7802   -0.1667   -2.8869 C   0  0  0  0  0  0  0  0  0  0  0  0
    2.7575    0.5437   -3.7586 C   0  0  0  0  0  0  0  0  0  0  0  0
    3.1652    1.6891   -4.5850 N   0  0  0  0  0  0  0  0  0  0  0  0
    1.5501    0.1475   -3.7731 O   0  0  0  0  0  0  0  0  0  0  0  0
    0.5506   -0.9944    0.3232 H   0  0  0  0  0  0  0  0  0  0  0  0
    0.5506    0.7172    0.6745 H   0  0  0  0  0  0  0  0  0  0  0  0
    1.9773   -0.0372    0.0047 H   0  0  0  0  0  0  0  0  0  0  0  0
   -1.1875    1.6095   -2.7160 H   0  0  0  0  0  0  0  0  0  0  0  0
   -1.3740    5.3151   -5.4358 H   0  0  0  0  0  0  0  0  0  0  0  0
    3.7308    4.9936   -3.8242 H   0  0  0  0  0  0  0  0  0  0  0  0
    4.7445    5.6283   -6.2802 H   0  0  0  0  0  0  0  0  0  0  0  0
    5.4114    7.6311   -7.5390 H   0  0  0  0  0  0  0  0  0  0  0  0
    4.2349    9.7678   -7.1280 H   0  0  0  0  0  0  0  0  0  0  0  0
    3.3902    3.4629   -2.6852 H   0  0  0  0  0  0  0  0  0  0  0  0
    2.8437    1.3261   -0.0711 H   0  0  0  0  0  0  0  0  0  0  0  0
    4.0766    1.8475   -1.2109 H   0  0  0  0  0  0  0  0  0  0  0  0
    5.3205   -0.2172   -0.9088 H   0  0  0  0  0  0  0  0  0  0  0  0
    4.1354   -0.6226    0.3306 H   0  0  0  0  0  0  0  0  0  0  0  0
    3.6364   -2.6811   -0.7875 H   0  0  0  0  0  0  0  0  0  0  0  0
    5.3773   -2.5807   -0.5207 H   0  0  0  0  0  0  0  0  0  0  0  0
    6.2861   -0.9512   -2.5440 H   0  0  0  0  0  0  0  0  0  0  0  0
    6.8227   -2.5859   -2.2390 H   0  0  0  0  0  0  0  0  0  0  0  0
    6.3217   -2.1163   -3.8457 H   0  0  0  0  0  0  0  0  0  0  0  0
    2.8938   -2.0417   -3.2346 H   0  0  0  0  0  0  0  0  0  0  0  0
    4.2264   -1.6492   -4.3271 H   0  0  0  0  0  0  0  0  0  0  0  0
    4.7402    0.2934   -2.9947 H   0  0  0  0  0  0  0  0  0  0  0  0
    2.4789    2.1658   -5.1700 H   0  0  0  0  0  0  0  0  0  0  0  0
    4.1342    2.0071   -4.5734 H   0  0  0  0  0  0  0  0  0  0  0  0
  1  2  1  0  0  0  0
  1 33  1  0  0  0  0
  1 34  1  0  0  0  0
  1 35  1  0  0  0  0
  2  3  1  0  0  0  0
  3  4  1  0  0  0  0
  3 21  2  0  0  0  0
  4  5  2  0  0  0  0
  4 36  1  0  0  0  0
  5  6  1  0  0  0  0
  5 19  1  0  0  0  0
  6  7  2  0  0  0  0
  7  8  1  0  0  0  0
  7 37  1  0  0  0  0
  8  9  2  0  0  0  0
  9 10  1  0  0  0  0
  9 19  1  0  0  0  0
 10 11  1  0  0  0  0
 10 38  1  0  0  0  0
 11 12  1  0  0  0  0
 11 17  2  0  0  0  0
 12 13  2  0  0  0  0
 12 39  1  0  0  0  0
 13 14  1  0  0  0  0
 13 40  1  0  0  0  0
 14 15  2  0  0  0  0
 14 41  1  0  0  0  0
 15 16  1  0  0  0  0
 15 17  1  0  0  0  0
 17 18  1  0  0  0  0
 19 20  2  0  0  0  0
 20 21  1  0  0  0  0
 20 42  1  0  0  0  0
 21 22  1  0  0  0  0
 22 23  1  0  0  0  0
 22 43  1  0  0  0  0
 22 44  1  0  0  0  0
 23 24  1  0  0  0  0
 23 29  1  0  0  0  0
 24 25  1  0  0  0  0
 24 45  1  0  0  0  0
 24 46  1  0  0  0  0
 25 26  1  0  0  0  0
 25 47  1  0  0  0  0
 25 48  1  0  0  0  0
 26 27  1  0  0  0  0
 26 28  1  0  0  0  0
 27 49  1  0  0  0  0
 27 50  1  0  0  0  0
 27 51  1  0  0  0  0
 28 29  1  0  0  0  0
 28 52  1  0  0  0  0
 28 53  1  0  0  0  0
 29 30  1  0  0  0  0
 29 54  1  0  0  0  0
 30 31  1  0  0  0  0
 30 32  2  0  0  0  0
 31 55  1  0  0  0  0
 31 56  1  0  0  0  0
M  END
