
 OpenBabel03132514253D

 64 69  0  0  0  0  0  0  0  0999 V2000
    1.0830    0.0557   -0.0021 O   0  0  0  0  0  0  0  0  0  0  0  0
    2.3539    0.0557   -0.0021 C   0  0  0  0  0  0  0  0  0  0  0  0
    3.0639    0.2858    1.2059 O   0  0  0  0  0  0  0  0  0  0  0  0
    3.1139   -0.1906   -1.2953 C   0  0  0  0  0  0  0  0  0  0  0  0
    2.7467   -1.5589   -1.8460 C   0  0  0  0  0  0  0  0  0  0  0  0
    1.2523   -1.6109   -2.1189 C   0  0  0  0  0  0  0  0  0  0  0  0
    0.8851   -0.5408   -3.1341 C   0  0  0  0  0  0  0  0  0  0  0  0
    1.5428    0.6666   -2.9667 C   0  0  0  0  0  0  0  0  0  0  0  0
    1.0807    1.6946   -3.8222 C   0  0  0  0  0  0  0  0  0  0  0  0
    0.3707    1.4946   -4.9176 C   0  0  0  0  0  0  0  0  0  0  0  0
    0.1942    2.5801   -5.9668 C   0  0  0  0  0  0  0  0  0  0  0  0
    1.3484    2.9914   -6.6127 C   0  0  0  0  0  0  0  0  0  0  0  0
    1.1739    4.1373   -7.4242 C   0  0  0  0  0  0  0  0  0  0  0  0
    0.0055    4.5854   -7.8462 C   0  0  0  0  0  0  0  0  0  0  0  0
   -0.1038    5.5980   -8.9745 C   0  0  0  0  0  0  0  0  0  0  0  0
    0.4684    5.3273  -10.2016 N   0  0  0  0  0  0  0  0  0  0  0  0
    0.4443    6.3004  -11.2052 C   0  0  0  0  0  0  0  0  0  0  0  0
    0.9409    6.3497  -12.5795 N   0  0  0  0  0  0  0  0  0  0  0  0
    0.6432    7.5171  -13.0705 C   0  0  0  0  0  0  0  0  0  0  0  0
    0.9589    7.9500  -14.3855 O   0  0  0  0  0  0  0  0  0  0  0  0
    1.6506    7.0825  -15.2717 C   0  0  0  0  0  0  0  0  0  0  0  0
    0.9269    5.9676  -15.4620 C   0  0  0  0  0  0  0  0  0  0  0  0
    1.2821    4.9762  -14.4583 O   0  0  0  0  0  0  0  0  0  0  0  0
    2.6991    5.3351  -13.9714 C   0  0  0  0  0  0  0  0  0  0  0  0
    3.6917    4.3541  -14.5596 C   0  0  0  0  0  0  0  0  0  0  0  0
    3.1441    3.0447  -14.6054 O   0  0  0  0  0  0  0  0  0  0  0  0
    3.9958    4.7978  -15.8103 C   0  0  0  0  0  0  0  0  0  0  0  0
    3.9253    6.2505  -15.8523 O   0  0  0  0  0  0  0  0  0  0  0  0
    2.9943    6.6758  -14.7011 C   0  0  0  0  0  0  0  0  0  0  0  0
   -0.0325    8.2838  -12.1163 N   0  0  0  0  0  0  0  0  0  0  0  0
   -0.1622    7.5446  -10.9582 C   0  0  0  0  0  0  0  0  0  0  0  0
   -0.7342    7.7989   -9.7169 C   0  0  0  0  0  0  0  0  0  0  0  0
   -0.7095    6.8321   -8.7370 C   0  0  0  0  0  0  0  0  0  0  0  0
   -1.4562    7.1593   -7.1547 Cl  0  0  0  0  0  0  0  0  0  0  0  0
   -1.1005    4.0894   -7.2136 C   0  0  0  0  0  0  0  0  0  0  0  0
   -0.9957    3.0586   -6.3112 C   0  0  0  0  0  0  0  0  0  0  0  0
   -0.1971    0.2587   -5.0571 C   0  0  0  0  0  0  0  0  0  0  0  0
    0.1037   -0.7597   -4.1852 C   0  0  0  0  0  0  0  0  0  0  0  0
    4.0639    0.2858    1.2059 H   0  0  0  0  0  0  0  0  0  0  0  0
    2.8554    0.5626   -2.0099 H   0  0  0  0  0  0  0  0  0  0  0  0
    4.1659   -0.1540   -1.1032 H   0  0  0  0  0  0  0  0  0  0  0  0
    3.2817   -1.7323   -2.7563 H   0  0  0  0  0  0  0  0  0  0  0  0
    3.0052   -2.3121   -1.1314 H   0  0  0  0  0  0  0  0  0  0  0  0
    0.9938   -2.5741   -2.5066 H   0  0  0  0  0  0  0  0  0  0  0  0
    0.7173   -1.4375   -1.2086 H   0  0  0  0  0  0  0  0  0  0  0  0
    2.3290    0.8091   -2.2550 H   0  0  0  0  0  0  0  0  0  0  0  0
    1.3234    2.7041   -3.5636 H   0  0  0  0  0  0  0  0  0  0  0  0
    2.2868    2.4882   -6.5076 H   0  0  0  0  0  0  0  0  0  0  0  0
    2.0496    4.6785   -7.7162 H   0  0  0  0  0  0  0  0  0  0  0  0
    1.8002    7.6058  -16.1930 H   0  0  0  0  0  0  0  0  0  0  0  0
   -0.1138    6.2014  -15.3770 H   0  0  0  0  0  0  0  0  0  0  0  0
    1.1279    5.5749  -16.4369 H   0  0  0  0  0  0  0  0  0  0  0  0
    2.7667    5.3519  -12.9037 H   0  0  0  0  0  0  0  0  0  0  0  0
    4.5752    4.3194  -13.9570 H   0  0  0  0  0  0  0  0  0  0  0  0
    2.3148    3.0496  -15.1641 H   0  0  0  0  0  0  0  0  0  0  0  0
    3.2939    4.3913  -16.5082 H   0  0  0  0  0  0  0  0  0  0  0  0
    4.9857    4.4833  -16.0673 H   0  0  0  0  0  0  0  0  0  0  0  0
    3.4200    7.4604  -14.1111 H   0  0  0  0  0  0  0  0  0  0  0  0
   -0.3740    9.2350  -12.2538 H   0  0  0  0  0  0  0  0  0  0  0  0
   -1.1935    8.7457   -9.5232 H   0  0  0  0  0  0  0  0  0  0  0  0
   -2.0615    4.5101   -7.4243 H   0  0  0  0  0  0  0  0  0  0  0  0
   -1.8808    2.6376   -5.8821 H   0  0  0  0  0  0  0  0  0  0  0  0
   -0.8856    0.0819   -5.8569 H   0  0  0  0  0  0  0  0  0  0  0  0
   -0.2952   -1.7380   -4.3546 H   0  0  0  0  0  0  0  0  0  0  0  0
  1  2  2  0  0  0  0
  2  3  1  0  0  0  0
  2  4  1  0  0  0  0
  3 39  1  0  0  0  0
  4  5  1  0  0  0  0
  4 40  1  0  0  0  0
  4 41  1  0  0  0  0
  5  6  1  0  0  0  0
  5 42  1  0  0  0  0
  5 43  1  0  0  0  0
  6  7  1  0  0  0  0
  6 44  1  0  0  0  0
  6 45  1  0  0  0  0
  7  8  1  0  0  0  0
  7 38  2  0  0  0  0
  8  9  2  0  0  0  0
  8 46  1  0  0  0  0
  9 10  1  0  0  0  0
  9 47  1  0  0  0  0
 10 11  1  0  0  0  0
 10 37  2  0  0  0  0
 11 12  1  0  0  0  0
 11 36  2  0  0  0  0
 12 13  2  0  0  0  0
 12 48  1  0  0  0  0
 13 14  1  0  0  0  0
 13 49  1  0  0  0  0
 14 15  1  0  0  0  0
 14 35  2  0  0  0  0
 15 16  1  0  0  0  0
 15 33  2  0  0  0  0
 16 17  2  0  0  0  0
 17 18  1  0  0  0  0
 17 31  1  0  0  0  0
 18 19  2  0  0  0  0
 19 20  1  0  0  0  0
 19 30  1  0  0  0  0
 20 21  1  0  0  0  0
 21 22  1  0  0  0  0
 21 29  1  0  0  0  0
 21 50  1  0  0  0  0
 22 23  1  0  0  0  0
 22 51  1  0  0  0  0
 22 52  1  0  0  0  0
 23 24  1  0  0  0  0
 24 25  1  0  0  0  0
 24 29  1  0  0  0  0
 24 53  1  0  0  0  0
 25 26  1  0  0  0  0
 25 27  1  0  0  0  0
 25 54  1  0  0  0  0
 26 55  1  0  0  0  0
 27 28  1  0  0  0  0
 27 56  1  0  0  0  0
 27 57  1  0  0  0  0
 28 29  1  0  0  0  0
 29 58  1  0  0  0  0
 30 31  1  0  0  0  0
 30 59  1  0  0  0  0
 31 32  2  0  0  0  0
 32 33  1  0  0  0  0
 32 60  1  0  0  0  0
 33 34  1  0  0  0  0
 35 36  1  0  0  0  0
 35 61  1  0  0  0  0
 36 62  1  0  0  0  0
 37 38  1  0  0  0  0
 37 63  1  0  0  0  0
 38 64  1  0  0  0  0
M  END
