
 OpenBabel03132514253D

 63 66  0  0  0  0  0  0  0  0999 V2000
    1.0193    0.0835    0.0516 C   0  0  0  0  0  0  0  0  0  0  0  0
    0.5460    0.7482    1.2137 O   0  0  0  0  0  0  0  0  0  0  0  0
    1.0193    0.0741    2.3704 C   0  0  0  0  0  0  0  0  0  0  0  0
    0.5126   -1.3590    2.3646 C   0  0  0  0  0  0  0  0  0  0  0  0
    1.0026   -2.0471    1.1616 N   0  0  0  0  0  0  0  0  0  0  0  0
    2.5193   -2.2738    1.0380 C   0  0  0  0  0  0  0  0  0  0  0  0
    2.1855   -3.6509    0.4421 C   0  0  0  0  0  0  0  0  0  0  0  0
    3.1295   -4.8345    0.5774 C   0  0  0  0  0  0  0  0  0  0  0  0
    3.5738   -5.5610   -0.6209 N   0  0  0  0  0  0  0  0  0  0  0  0
    3.5346   -5.1961    1.7264 O   0  0  0  0  0  0  0  0  0  0  0  0
    2.0462   -3.6700   -1.0211 N   0  0  0  0  0  0  0  0  0  0  0  0
    3.3068   -3.2343   -1.6391 C   0  0  0  0  0  0  0  0  0  0  0  0
    1.7289   -5.0349   -1.4654 C   0  0  0  0  0  0  0  0  0  0  0  0
    2.8483   -5.9758   -1.0506 C   0  0  0  0  0  0  0  0  0  0  0  0
    2.6263   -7.3216   -1.1202 C   0  0  0  0  0  0  0  0  0  0  0  0
    3.6347   -8.2231   -0.7100 C   0  0  0  0  0  0  0  0  0  0  0  0
    3.4986   -9.6401   -0.7440 C   0  0  0  0  0  0  0  0  0  0  0  0
    2.2544  -10.2257   -1.2637 N   0  0  0  0  0  0  0  0  0  0  0  0
    2.0919  -11.6860   -1.3082 C   0  0  0  0  0  0  0  0  0  0  0  0
    1.8745  -12.3272   -2.5103 C   0  0  0  0  0  0  0  0  0  0  0  0
    1.7212  -13.7063   -2.5712 C   0  0  0  0  0  0  0  0  0  0  0  0
    1.7901  -14.4467   -1.3923 C   0  0  0  0  0  0  0  0  0  0  0  0
    2.0089  -13.8030   -0.1890 C   0  0  0  0  0  0  0  0  0  0  0  0
    2.1383  -14.7164    1.2749 Cl  0  0  0  0  0  0  0  0  0  0  0  0
    2.1527  -12.4343   -0.1608 C   0  0  0  0  0  0  0  0  0  0  0  0
    2.3874  -11.8182    1.0158 F   0  0  0  0  0  0  0  0  0  0  0  0
    4.4513  -10.4375   -0.3249 N   0  0  0  0  0  0  0  0  0  0  0  0
    5.6028   -9.8536    0.1291 C   0  0  0  0  0  0  0  0  0  0  0  0
    5.8622   -8.5765    0.1903 N   0  0  0  0  0  0  0  0  0  0  0  0
    4.8690   -7.7293   -0.2309 C   0  0  0  0  0  0  0  0  0  0  0  0
    5.0767   -6.3322   -0.1972 C   0  0  0  0  0  0  0  0  0  0  0  0
    4.0814   -5.4795   -0.5860 C   0  0  0  0  0  0  0  0  0  0  0  0
    4.2935   -4.0770   -0.5206 O   0  0  0  0  0  0  0  0  0  0  0  0
    3.2653   -3.1838   -0.9224 C   0  0  0  0  0  0  0  0  0  0  0  0
    0.8572   -3.5791    1.2134 C   0  0  0  0  0  0  0  0  0  0  0  0
    0.6626    0.5914   -0.8200 H   0  0  0  0  0  0  0  0  0  0  0  0
    0.6626   -0.9253    0.0475 H   0  0  0  0  0  0  0  0  0  0  0  0
    2.0893    0.0835    0.0516 H   0  0  0  0  0  0  0  0  0  0  0  0
    2.0893    0.0741    2.3704 H   0  0  0  0  0  0  0  0  0  0  0  0
    0.6626    0.5750    3.2461 H   0  0  0  0  0  0  0  0  0  0  0  0
    0.8693   -1.8669    3.2362 H   0  0  0  0  0  0  0  0  0  0  0  0
   -0.5574   -1.3590    2.3646 H   0  0  0  0  0  0  0  0  0  0  0  0
    3.1566   -1.5779    0.5335 H   0  0  0  0  0  0  0  0  0  0  0  0
    3.0449   -2.3044    1.9695 H   0  0  0  0  0  0  0  0  0  0  0  0
    4.2073   -6.3552   -0.5301 H   0  0  0  0  0  0  0  0  0  0  0  0
    3.2486   -5.2707   -1.5431 H   0  0  0  0  0  0  0  0  0  0  0  0
    4.0948   -3.8966   -1.3471 H   0  0  0  0  0  0  0  0  0  0  0  0
    3.2055   -3.2482   -2.7042 H   0  0  0  0  0  0  0  0  0  0  0  0
    3.5378   -2.2408   -1.3157 H   0  0  0  0  0  0  0  0  0  0  0  0
    0.8113   -5.3521   -1.0156 H   0  0  0  0  0  0  0  0  0  0  0  0
    1.6275   -5.0488   -2.5305 H   0  0  0  0  0  0  0  0  0  0  0  0
    1.6911   -7.6926   -1.4844 H   0  0  0  0  0  0  0  0  0  0  0  0
    1.5039   -9.6187   -1.5935 H   0  0  0  0  0  0  0  0  0  0  0  0
    1.8231  -11.7522   -3.4112 H   0  0  0  0  0  0  0  0  0  0  0  0
    1.5528  -14.1931   -3.5091 H   0  0  0  0  0  0  0  0  0  0  0  0
    1.6740  -15.5101   -1.4188 H   0  0  0  0  0  0  0  0  0  0  0  0
    6.3721  -10.5146    0.4699 H   0  0  0  0  0  0  0  0  0  0  0  0
    6.0158   -5.9404    0.1336 H   0  0  0  0  0  0  0  0  0  0  0  0
    3.0203   -3.3606   -1.9489 H   0  0  0  0  0  0  0  0  0  0  0  0
    2.3979   -3.3426   -0.3163 H   0  0  0  0  0  0  0  0  0  0  0  0
    3.6028   -2.1753   -0.8049 H   0  0  0  0  0  0  0  0  0  0  0  0
    0.7072   -4.1034    2.1339 H   0  0  0  0  0  0  0  0  0  0  0  0
    0.0111   -3.9669    0.6855 H   0  0  0  0  0  0  0  0  0  0  0  0
  1  2  1  0  0  0  0
  1 36  1  0  0  0  0
  1 37  1  0  0  0  0
  1 38  1  0  0  0  0
  2  3  1  0  0  0  0
  3  4  1  0  0  0  0
  3 39  1  0  0  0  0
  3 40  1  0  0  0  0
  4  5  1  0  0  0  0
  4 41  1  0  0  0  0
  4 42  1  0  0  0  0
  5  6  1  0  0  0  0
  5 35  1  0  0  0  0
  6  7  1  0  0  0  0
  6 43  1  0  0  0  0
  6 44  1  0  0  0  0
  7  8  1  0  0  0  0
  7 11  1  0  0  0  0
  7 35  1  0  0  0  0
  8  9  1  0  0  0  0
  8 10  2  0  0  0  0
  9 45  1  0  0  0  0
  9 46  1  0  0  0  0
 11 12  1  0  0  0  0
 11 13  1  0  0  0  0
 12 47  1  0  0  0  0
 12 48  1  0  0  0  0
 12 49  1  0  0  0  0
 13 14  1  0  0  0  0
 13 50  1  0  0  0  0
 13 51  1  0  0  0  0
 14 15  1  0  0  0  0
 14 32  2  0  0  0  0
 15 16  2  0  0  0  0
 15 52  1  0  0  0  0
 16 17  1  0  0  0  0
 16 30  1  0  0  0  0
 17 18  1  0  0  0  0
 17 27  2  0  0  0  0
 18 19  1  0  0  0  0
 18 53  1  0  0  0  0
 19 20  1  0  0  0  0
 19 25  2  0  0  0  0
 20 21  2  0  0  0  0
 20 54  1  0  0  0  0
 21 22  1  0  0  0  0
 21 55  1  0  0  0  0
 22 23  2  0  0  0  0
 22 56  1  0  0  0  0
 23 24  1  0  0  0  0
 23 25  1  0  0  0  0
 25 26  1  0  0  0  0
 27 28  1  0  0  0  0
 28 29  2  0  0  0  0
 28 57  1  0  0  0  0
 29 30  1  0  0  0  0
 30 31  2  0  0  0  0
 31 32  1  0  0  0  0
 31 58  1  0  0  0  0
 32 33  1  0  0  0  0
 33 34  1  0  0  0  0
 34 59  1  0  0  0  0
 34 60  1  0  0  0  0
 34 61  1  0  0  0  0
 35 62  1  0  0  0  0
 35 63  1  0  0  0  0
M  END
