
 OpenBabel03132514253D

 26 27  0  0  0  0  0  0  0  0999 V2000
    2.2910    0.0000   -0.0050 C   0  0  0  0  0  0  0  0  0  0  0  0
    0.7800   -0.0230    0.0020 C   0  0  0  0  0  0  0  0  0  0  0  0
   -0.0450    1.1380    0.0030 C   0  0  0  0  0  0  0  0  0  0  0  0
    0.4448    2.5769    0.0067 C   0  0  0  0  0  0  0  0  0  0  0  0
    1.2453    3.0712   -1.0261 C   0  0  0  0  0  0  0  0  0  0  0  0
    1.6548    4.3897   -0.9964 C   0  0  0  0  0  0  0  0  0  0  0  0
    1.3314    5.2241    0.0040 N   0  0  0  0  0  0  0  0  0  0  0  0
    0.5831    4.7398    1.0001 C   0  0  0  0  0  0  0  0  0  0  0  0
    0.1119    3.4474    1.0368 C   0  0  0  0  0  0  0  0  0  0  0  0
   -1.3790    0.7300    0.0000 C   0  0  0  0  0  0  0  0  0  0  0  0
   -1.3560   -0.6330   -0.0070 N   0  0  0  0  0  0  0  0  0  0  0  0
   -0.0660   -1.1070    0.0090 C   0  0  0  0  0  0  0  0  0  0  0  0
    0.3510   -2.5685    0.0306 C   0  0  0  0  0  0  0  0  0  0  0  0
   -0.6715   -3.6246    0.0359 N   0  0  0  0  0  0  0  0  0  0  0  0
    1.5837   -2.8775    0.0441 O   0  0  0  0  0  0  0  0  0  0  0  0
    2.6359    0.5077   -0.8815 H   0  0  0  0  0  0  0  0  0  0  0  0
    2.6440    0.5119    0.8658 H   0  0  0  0  0  0  0  0  0  0  0  0
    2.6630   -1.0033   -0.0043 H   0  0  0  0  0  0  0  0  0  0  0  0
    1.5387    2.4334   -1.8336 H   0  0  0  0  0  0  0  0  0  0  0  0
    2.2532    4.7606   -1.8022 H   0  0  0  0  0  0  0  0  0  0  0  0
    0.3374    5.3917    1.8122 H   0  0  0  0  0  0  0  0  0  0  0  0
   -0.5028    3.1174    1.8481 H   0  0  0  0  0  0  0  0  0  0  0  0
   -2.2445    1.3591    0.0027 H   0  0  0  0  0  0  0  0  0  0  0  0
   -2.1874   -1.2238   -0.0221 H   0  0  0  0  0  0  0  0  0  0  0  0
   -0.3917   -4.6054    0.0503 H   0  0  0  0  0  0  0  0  0  0  0  0
   -1.6608   -3.3767    0.0250 H   0  0  0  0  0  0  0  0  0  0  0  0
  1  2  1  0  0  0  0
  1 16  1  0  0  0  0
  1 17  1  0  0  0  0
  1 18  1  0  0  0  0
  2  3  1  0  0  0  0
  2 12  2  0  0  0  0
  3  4  1  0  0  0  0
  3 10  2  0  0  0  0
  4  5  1  0  0  0  0
  4  9  2  0  0  0  0
  5  6  2  0  0  0  0
  5 19  1  0  0  0  0
  6  7  1  0  0  0  0
  6 20  1  0  0  0  0
  7  8  2  0  0  0  0
  8  9  1  0  0  0  0
  8 21  1  0  0  0  0
  9 22  1  0  0  0  0
 10 11  1  0  0  0  0
 10 23  1  0  0  0  0
 11 12  1  0  0  0  0
 11 24  1  0  0  0  0
 12 13  1  0  0  0  0
 13 14  1  0  0  0  0
 13 15  2  0  0  0  0
 14 25  1  0  0  0  0
 14 26  1  0  0  0  0
M  END
