
 OpenBabel03132514253D

 52 53  0  0  0  0  0  0  0  0999 V2000
    1.0939   -0.0271    0.0213 C   0  0  0  0  0  0  0  0  0  0  0  0
    0.5872   -0.6801    1.2969 C   0  0  0  0  0  0  0  0  0  0  0  0
    1.0605    0.0470    2.4211 O   0  0  0  0  0  0  0  0  0  0  0  0
    2.4566    0.1879    2.6390 C   0  0  0  0  0  0  0  0  0  0  0  0
    2.9892   -0.0010    3.8985 N   0  0  0  0  0  0  0  0  0  0  0  0
    4.2897    0.1281    4.1095 C   0  0  0  0  0  0  0  0  0  0  0  0
    4.8197   -0.0739    5.4657 N   0  0  0  0  0  0  0  0  0  0  0  0
    3.9085   -0.4149    6.5677 C   0  0  0  0  0  0  0  0  0  0  0  0
    4.3668   -0.5896    7.7402 O   0  0  0  0  0  0  0  0  0  0  0  0
    2.4183   -0.5586    6.3049 C   0  0  0  0  0  0  0  0  0  0  0  0
    1.8698    0.7532    5.7674 C   0  0  0  0  0  0  0  0  0  0  0  0
    1.0399    0.8303    4.6144 C   0  0  0  0  0  0  0  0  0  0  0  0
    0.8972    2.0589    3.9492 C   0  0  0  0  0  0  0  0  0  0  0  0
    0.3276    2.1001    2.6490 O   0  0  0  0  0  0  0  0  0  0  0  0
   -0.0975    0.8992    2.0218 C   0  0  0  0  0  0  0  0  0  0  0  0
    1.2865    3.1590    4.5235 C   0  0  0  0  0  0  0  0  0  0  0  0
    1.1145    4.7398    3.6590 S   0  0  0  0  0  0  0  0  0  0  0  0
    2.0625    4.6911    2.1179 C   0  0  0  0  0  0  0  0  0  0  0  0
   -0.3617    4.9900    3.3421 O   0  0  0  0  0  0  0  0  0  0  0  0
    1.6436    5.8677    4.5480 O   0  0  0  0  0  0  0  0  0  0  0  0
    1.8391    3.1218    5.8107 C   0  0  0  0  0  0  0  0  0  0  0  0
    2.2617    1.8848    6.3553 C   0  0  0  0  0  0  0  0  0  0  0  0
    3.0893    1.8496    7.5087 O   0  0  0  0  0  0  0  0  0  0  0  0
    3.5064    0.6028    8.0454 C   0  0  0  0  0  0  0  0  0  0  0  0
    5.1236    0.4344    3.1299 C   0  0  0  0  0  0  0  0  0  0  0  0
    4.6600    0.6376    1.8445 C   0  0  0  0  0  0  0  0  0  0  0  0
    5.5938    0.9779    0.7614 N   0  0  0  0  0  0  0  0  0  0  0  0
    3.3019    0.5163    1.5889 C   0  0  0  0  0  0  0  0  0  0  0  0
    2.7520    0.7383    0.1893 C   0  0  0  0  0  0  0  0  0  0  0  0
    2.2958    0.9224   -0.9717 N   0  0  0  0  0  0  0  0  0  0  0  0
    0.7372    0.9804   -0.0297 H   0  0  0  0  0  0  0  0  0  0  0  0
    0.7372   -0.5750   -0.8258 H   0  0  0  0  0  0  0  0  0  0  0  0
    2.1639   -0.0271    0.0213 H   0  0  0  0  0  0  0  0  0  0  0  0
   -0.4828   -0.6801    1.2969 H   0  0  0  0  0  0  0  0  0  0  0  0
    0.9439   -1.6876    1.3479 H   0  0  0  0  0  0  0  0  0  0  0  0
    5.8197    0.0225    5.6421 H   0  0  0  0  0  0  0  0  0  0  0  0
    2.2561   -1.3343    5.5860 H   0  0  0  0  0  0  0  0  0  0  0  0
    1.9176   -0.8075    7.2172 H   0  0  0  0  0  0  0  0  0  0  0  0
    0.5292   -0.0396    4.2575 H   0  0  0  0  0  0  0  0  0  0  0  0
    0.7361    0.2366    1.9179 H   0  0  0  0  0  0  0  0  0  0  0  0
   -0.8520    0.4322    2.6198 H   0  0  0  0  0  0  0  0  0  0  0  0
   -0.4972    1.1240    1.0550 H   0  0  0  0  0  0  0  0  0  0  0  0
    1.6926    3.9026    1.4964 H   0  0  0  0  0  0  0  0  0  0  0  0
    1.9608    5.6256    1.6069 H   0  0  0  0  0  0  0  0  0  0  0  0
    3.0946    4.5162    2.3395 H   0  0  0  0  0  0  0  0  0  0  0  0
    1.9410    4.0228    6.3787 H   0  0  0  0  0  0  0  0  0  0  0  0
    2.6474    0.0300    8.3260 H   0  0  0  0  0  0  0  0  0  0  0  0
    4.0673    0.0670    7.3083 H   0  0  0  0  0  0  0  0  0  0  0  0
    4.1190    0.7721    8.9062 H   0  0  0  0  0  0  0  0  0  0  0  0
    6.1698    0.5259    3.3353 H   0  0  0  0  0  0  0  0  0  0  0  0
    6.5911    1.0654    0.9566 H   0  0  0  0  0  0  0  0  0  0  0  0
    5.2444    1.1265   -0.1853 H   0  0  0  0  0  0  0  0  0  0  0  0
  1  2  1  0  0  0  0
  1 31  1  0  0  0  0
  1 32  1  0  0  0  0
  1 33  1  0  0  0  0
  2  3  1  0  0  0  0
  2 34  1  0  0  0  0
  2 35  1  0  0  0  0
  3  4  1  0  0  0  0
  4  5  1  0  0  0  0
  4 28  2  0  0  0  0
  5  6  2  0  0  0  0
  6  7  1  0  0  0  0
  6 25  1  0  0  0  0
  7  8  1  0  0  0  0
  7 36  1  0  0  0  0
  8  9  2  0  0  0  0
  8 10  1  0  0  0  0
 10 11  1  0  0  0  0
 10 37  1  0  0  0  0
 10 38  1  0  0  0  0
 11 12  1  0  0  0  0
 11 22  2  0  0  0  0
 12 13  2  0  0  0  0
 12 39  1  0  0  0  0
 13 14  1  0  0  0  0
 13 16  1  0  0  0  0
 14 15  1  0  0  0  0
 15 40  1  0  0  0  0
 15 41  1  0  0  0  0
 15 42  1  0  0  0  0
 16 17  1  0  0  0  0
 16 21  2  0  0  0  0
 17 18  1  0  0  0  0
 17 19  2  0  0  0  0
 17 20  2  0  0  0  0
 18 43  1  0  0  0  0
 18 44  1  0  0  0  0
 18 45  1  0  0  0  0
 21 22  1  0  0  0  0
 21 46  1  0  0  0  0
 22 23  1  0  0  0  0
 23 24  1  0  0  0  0
 24 47  1  0  0  0  0
 24 48  1  0  0  0  0
 24 49  1  0  0  0  0
 25 26  2  0  0  0  0
 25 50  1  0  0  0  0
 26 27  1  0  0  0  0
 26 28  1  0  0  0  0
 27 51  1  0  0  0  0
 27 52  1  0  0  0  0
 28 29  1  0  0  0  0
 29 30  3  0  0  0  0
M  END
