
 OpenBabel03132514253D

 52 55  0  0  0  0  0  0  0  0999 V2000
    0.9175    0.0267    0.0499 C   0  0  0  0  0  0  0  0  0  0  0  0
    0.4109   -1.3836   -0.2049 C   0  0  0  0  0  0  0  0  0  0  0  0
    0.9175   -2.3093    0.8890 C   0  0  0  0  0  0  0  0  0  0  0  0
   -1.1091   -1.3836   -0.2049 C   0  0  0  0  0  0  0  0  0  0  0  0
    0.9175   -1.8680   -1.5536 C   0  0  0  0  0  0  0  0  0  0  0  0
    0.4275   -0.9727   -2.6115 N   0  0  0  0  0  0  0  0  0  0  0  0
    1.3828   -0.2509   -3.4644 C   0  0  0  0  0  0  0  0  0  0  0  0
    0.9592    0.5231   -4.3790 O   0  0  0  0  0  0  0  0  0  0  0  0
    2.8772   -0.4304   -3.2524 C   0  0  0  0  0  0  0  0  0  0  0  0
    3.8265    0.5572   -3.2179 C   0  0  0  0  0  0  0  0  0  0  0  0
    5.0524   -0.0018   -3.0280 N   0  0  0  0  0  0  0  0  0  0  0  0
    4.9547   -1.3721   -2.9103 C   0  0  0  0  0  0  0  0  0  0  0  0
    5.8406   -2.3464   -2.7108 N   0  0  0  0  0  0  0  0  0  0  0  0
    5.4499   -3.6099   -2.6274 C   0  0  0  0  0  0  0  0  0  0  0  0
    4.0932   -3.9502   -2.7676 C   0  0  0  0  0  0  0  0  0  0  0  0
    3.6459   -5.4012   -2.6975 C   0  0  0  0  0  0  0  0  0  0  0  0
    4.4794   -6.5797   -3.2050 C   0  0  0  0  0  0  0  0  0  0  0  0
    3.4345   -6.7978   -2.1078 C   0  0  0  0  0  0  0  0  0  0  0  0
    3.2075   -2.9743   -2.9632 N   0  0  0  0  0  0  0  0  0  0  0  0
    3.5930   -1.7031   -3.0419 C   0  0  0  0  0  0  0  0  0  0  0  0
    2.4375   -1.8680   -1.5536 C   0  0  0  0  0  0  0  0  0  0  0  0
    3.0730   -2.9511   -1.7493 O   0  0  0  0  0  0  0  0  0  0  0  0
    3.1725   -0.6153   -1.3273 N   0  0  0  0  0  0  0  0  0  0  0  0
    4.3599    0.1685   -1.9128 C   0  0  0  0  0  0  0  0  0  0  0  0
    4.5099    0.8213   -0.5292 C   0  0  0  0  0  0  0  0  0  0  0  0
    5.0924    2.2147   -0.3577 C   0  0  0  0  0  0  0  0  0  0  0  0
    5.5756    3.3707   -0.2154 N   0  0  0  0  0  0  0  0  0  0  0  0
    3.0147    0.5339   -0.3146 C   0  0  0  0  0  0  0  0  0  0  0  0
    0.5609    0.3677    0.9993 H   0  0  0  0  0  0  0  0  0  0  0  0
    0.5609    0.6784   -0.7202 H   0  0  0  0  0  0  0  0  0  0  0  0
    1.9875    0.0267    0.0499 H   0  0  0  0  0  0  0  0  0  0  0  0
    0.5609   -1.9683    1.8384 H   0  0  0  0  0  0  0  0  0  0  0  0
    0.5609   -3.3021    0.7097 H   0  0  0  0  0  0  0  0  0  0  0  0
    1.9875   -2.3093    0.8890 H   0  0  0  0  0  0  0  0  0  0  0  0
   -1.4658   -0.7319   -0.9750 H   0  0  0  0  0  0  0  0  0  0  0  0
   -1.4658   -2.3763   -0.3843 H   0  0  0  0  0  0  0  0  0  0  0  0
   -1.4658   -1.0425    0.7445 H   0  0  0  0  0  0  0  0  0  0  0  0
    0.5609   -2.8608   -1.7330 H   0  0  0  0  0  0  0  0  0  0  0  0
   -0.5753   -0.8523   -2.7538 H   0  0  0  0  0  0  0  0  0  0  0  0
    3.6338    1.6044   -3.3237 H   0  0  0  0  0  0  0  0  0  0  0  0
    5.9261    0.5224   -2.9794 H   0  0  0  0  0  0  0  0  0  0  0  0
    6.1737   -4.3781   -2.4518 H   0  0  0  0  0  0  0  0  0  0  0  0
    2.9039   -4.6303   -2.7053 H   0  0  0  0  0  0  0  0  0  0  0  0
    4.6709   -7.0133   -4.1643 H   0  0  0  0  0  0  0  0  0  0  0  0
    5.5217   -6.6382   -2.9704 H   0  0  0  0  0  0  0  0  0  0  0  0
    3.4479   -7.2129   -1.1217 H   0  0  0  0  0  0  0  0  0  0  0  0
    2.5372   -7.3394   -2.3234 H   0  0  0  0  0  0  0  0  0  0  0  0
    5.1772   -0.3215   -2.3994 H   0  0  0  0  0  0  0  0  0  0  0  0
    4.1046    0.8449   -2.7017 H   0  0  0  0  0  0  0  0  0  0  0  0
    5.1653    0.3046    0.1405 H   0  0  0  0  0  0  0  0  0  0  0  0
    2.2693    1.2929   -0.4303 H   0  0  0  0  0  0  0  0  0  0  0  0
    2.7555    0.2252    0.6765 H   0  0  0  0  0  0  0  0  0  0  0  0
  1  2  1  0  0  0  0
  1 29  1  0  0  0  0
  1 30  1  0  0  0  0
  1 31  1  0  0  0  0
  2  3  1  0  0  0  0
  2  4  1  0  0  0  0
  2  5  1  0  0  0  0
  3 32  1  0  0  0  0
  3 33  1  0  0  0  0
  3 34  1  0  0  0  0
  4 35  1  0  0  0  0
  4 36  1  0  0  0  0
  4 37  1  0  0  0  0
  5  6  1  0  0  0  0
  5 21  1  0  0  0  0
  5 38  1  0  0  0  0
  6  7  1  0  0  0  0
  6 39  1  0  0  0  0
  7  8  2  0  0  0  0
  7  9  1  0  0  0  0
  9 10  2  0  0  0  0
  9 20  1  0  0  0  0
 10 11  1  0  0  0  0
 10 40  1  0  0  0  0
 11 12  1  0  0  0  0
 11 41  1  0  0  0  0
 12 13  1  0  0  0  0
 12 20  2  0  0  0  0
 13 14  2  0  0  0  0
 14 15  1  0  0  0  0
 14 42  1  0  0  0  0
 15 16  1  0  0  0  0
 15 19  2  0  0  0  0
 16 17  1  0  0  0  0
 16 18  1  0  0  0  0
 16 43  1  0  0  0  0
 17 18  1  0  0  0  0
 17 44  1  0  0  0  0
 17 45  1  0  0  0  0
 18 46  1  0  0  0  0
 18 47  1  0  0  0  0
 19 20  1  0  0  0  0
 21 22  2  0  0  0  0
 21 23  1  0  0  0  0
 23 24  1  0  0  0  0
 23 28  1  0  0  0  0
 24 25  1  0  0  0  0
 24 48  1  0  0  0  0
 24 49  1  0  0  0  0
 25 26  1  0  0  0  0
 25 28  1  0  0  0  0
 25 50  1  0  0  0  0
 26 27  3  0  0  0  0
 28 51  1  0  0  0  0
 28 52  1  0  0  0  0
M  END
