
 OpenBabel03132514253D

 40 43  0  0  0  0  0  0  0  0999 V2000
    0.9526   -0.0825   -0.0309 O   0  0  0  0  0  0  0  0  0  0  0  0
    2.2235   -0.0825   -0.0309 C   0  0  0  0  0  0  0  0  0  0  0  0
    2.9335    0.5699   -1.0733 O   0  0  0  0  0  0  0  0  0  0  0  0
    2.9835   -0.7808    1.0850 C   0  0  0  0  0  0  0  0  0  0  0  0
    3.9827   -0.2933    1.8954 C   0  0  0  0  0  0  0  0  0  0  0  0
    4.2711   -1.1883    2.8911 N   0  0  0  0  0  0  0  0  0  0  0  0
    3.4910   -2.3082    2.7169 C   0  0  0  0  0  0  0  0  0  0  0  0
    3.4917   -3.5069    3.4382 C   0  0  0  0  0  0  0  0  0  0  0  0
    2.6358   -4.4891    2.9809 C   0  0  0  0  0  0  0  0  0  0  0  0
    2.6004   -6.0252    3.8091 Cl  0  0  0  0  0  0  0  0  0  0  0  0
    1.8054   -4.3248    1.8583 C   0  0  0  0  0  0  0  0  0  0  0  0
    0.8993   -5.4604    1.4113 C   0  0  0  0  0  0  0  0  0  0  0  0
    1.0304   -6.0370    0.1587 C   0  0  0  0  0  0  0  0  0  0  0  0
   -0.0457   -6.8836   -0.1981 C   0  0  0  0  0  0  0  0  0  0  0  0
   -0.9138   -7.3924    0.6571 C   0  0  0  0  0  0  0  0  0  0  0  0
   -1.8266   -8.5478    0.2799 C   0  0  0  0  0  0  0  0  0  0  0  0
   -0.6893   -8.3953   -0.7169 C   0  0  0  0  0  0  0  0  0  0  0  0
   -0.7500   -7.1069   -1.3108 O   0  0  0  0  0  0  0  0  0  0  0  0
   -2.4854   -9.6821    1.0676 C   0  0  0  0  0  0  0  0  0  0  0  0
   -3.3430   -8.7451    0.2133 C   0  0  0  0  0  0  0  0  0  0  0  0
   -0.9474   -6.8240    1.9002 C   0  0  0  0  0  0  0  0  0  0  0  0
   -0.0091   -5.8938    2.2774 C   0  0  0  0  0  0  0  0  0  0  0  0
    1.8123   -3.1283    1.1592 C   0  0  0  0  0  0  0  0  0  0  0  0
    2.6581   -2.0901    1.5889 C   0  0  0  0  0  0  0  0  0  0  0  0
    3.9335    0.5699   -1.0733 H   0  0  0  0  0  0  0  0  0  0  0  0
    4.4665    0.6523    1.7660 H   0  0  0  0  0  0  0  0  0  0  0  0
    4.9514   -1.0479    3.6380 H   0  0  0  0  0  0  0  0  0  0  0  0
    4.1181   -3.6538    4.2931 H   0  0  0  0  0  0  0  0  0  0  0  0
    1.8693   -5.8584   -0.4810 H   0  0  0  0  0  0  0  0  0  0  0  0
   -0.1643   -7.1287   -1.2329 H   0  0  0  0  0  0  0  0  0  0  0  0
    0.2464   -8.5111   -0.2110 H   0  0  0  0  0  0  0  0  0  0  0  0
   -0.7786   -9.1431   -1.4771 H   0  0  0  0  0  0  0  0  0  0  0  0
   -1.6244   -6.9987   -1.7837 H   0  0  0  0  0  0  0  0  0  0  0  0
   -2.3497  -10.7419    1.1245 H   0  0  0  0  0  0  0  0  0  0  0  0
   -2.5387   -9.6315    2.1351 H   0  0  0  0  0  0  0  0  0  0  0  0
   -4.1955   -8.1243    0.3940 H   0  0  0  0  0  0  0  0  0  0  0  0
   -3.7966   -9.1061   -0.6861 H   0  0  0  0  0  0  0  0  0  0  0  0
   -1.7154   -7.1076    2.5891 H   0  0  0  0  0  0  0  0  0  0  0  0
   -0.0104   -5.5153    3.2783 H   0  0  0  0  0  0  0  0  0  0  0  0
    1.1828   -2.9962    0.3041 H   0  0  0  0  0  0  0  0  0  0  0  0
  1  2  2  0  0  0  0
  2  3  1  0  0  0  0
  2  4  1  0  0  0  0
  3 25  1  0  0  0  0
  4  5  2  0  0  0  0
  4 24  1  0  0  0  0
  5  6  1  0  0  0  0
  5 26  1  0  0  0  0
  6  7  1  0  0  0  0
  6 27  1  0  0  0  0
  7  8  1  0  0  0  0
  7 24  2  0  0  0  0
  8  9  2  0  0  0  0
  8 28  1  0  0  0  0
  9 10  1  0  0  0  0
  9 11  1  0  0  0  0
 11 12  1  0  0  0  0
 11 23  2  0  0  0  0
 12 13  1  0  0  0  0
 12 22  2  0  0  0  0
 13 14  2  0  0  0  0
 13 29  1  0  0  0  0
 14 15  1  0  0  0  0
 14 30  1  0  0  0  0
 15 16  1  0  0  0  0
 15 21  2  0  0  0  0
 16 17  1  0  0  0  0
 16 19  1  0  0  0  0
 16 20  1  0  0  0  0
 17 18  1  0  0  0  0
 17 31  1  0  0  0  0
 17 32  1  0  0  0  0
 18 33  1  0  0  0  0
 19 20  1  0  0  0  0
 19 34  1  0  0  0  0
 19 35  1  0  0  0  0
 20 36  1  0  0  0  0
 20 37  1  0  0  0  0
 21 22  1  0  0  0  0
 21 38  1  0  0  0  0
 22 39  1  0  0  0  0
 23 24  1  0  0  0  0
 23 40  1  0  0  0  0
M  END
