
 OpenBabel03132514253D

 71 76  0  0  0  0  0  0  0  0999 V2000
    1.0446   -0.0543   -0.0711 C   0  0  0  0  0  0  0  0  0  0  0  0
    0.4413   -1.1876   -1.3470 S   0  0  0  0  0  0  0  0  0  0  0  0
    1.0446   -0.6494   -2.9663 C   0  0  0  0  0  0  0  0  0  0  0  0
    1.5796   -1.5633   -3.8591 C   0  0  0  0  0  0  0  0  0  0  0  0
    2.1753   -0.9712   -4.9978 C   0  0  0  0  0  0  0  0  0  0  0  0
    1.9561    0.2679   -5.3987 C   0  0  0  0  0  0  0  0  0  0  0  0
    1.3625    1.1038   -4.4941 C   0  0  0  0  0  0  0  0  0  0  0  0
    0.8727    0.6234   -3.3036 C   0  0  0  0  0  0  0  0  0  0  0  0
    0.1518    1.5267   -2.3951 N   0  0  0  0  0  0  0  0  0  0  0  0
   -0.0423    2.9369   -2.7620 C   0  0  0  0  0  0  0  0  0  0  0  0
   -0.7267    3.2132   -3.9010 N   0  0  0  0  0  0  0  0  0  0  0  0
   -1.0188    4.5390   -4.2627 C   0  0  0  0  0  0  0  0  0  0  0  0
   -1.7690    4.8096   -5.4976 N   0  0  0  0  0  0  0  0  0  0  0  0
   -1.3029    5.6219   -6.6281 C   0  0  0  0  0  0  0  0  0  0  0  0
   -1.3081    4.8288   -7.9207 C   0  0  0  0  0  0  0  0  0  0  0  0
   -2.6626    4.3456   -8.2140 N   0  0  0  0  0  0  0  0  0  0  0  0
   -3.5651    5.4900   -8.4058 C   0  0  0  0  0  0  0  0  0  0  0  0
   -4.0764    6.7111   -7.6446 C   0  0  0  0  0  0  0  0  0  0  0  0
   -5.4390    6.4408   -7.0440 C   0  0  0  0  0  0  0  0  0  0  0  0
   -6.3986    6.0684   -8.0914 N   0  0  0  0  0  0  0  0  0  0  0  0
   -5.9594    4.8311   -8.7339 C   0  0  0  0  0  0  0  0  0  0  0  0
   -4.6128    5.0193   -9.4129 C   0  0  0  0  0  0  0  0  0  0  0  0
   -3.1287    3.5333   -7.0836 C   0  0  0  0  0  0  0  0  0  0  0  0
   -3.1236    4.3264   -5.7909 C   0  0  0  0  0  0  0  0  0  0  0  0
   -0.6059    5.5921   -3.4657 N   0  0  0  0  0  0  0  0  0  0  0  0
    0.0979    5.3291   -2.2823 C   0  0  0  0  0  0  0  0  0  0  0  0
    0.5266    6.3793   -1.4468 C   0  0  0  0  0  0  0  0  0  0  0  0
    0.2315    7.7731   -1.8087 N   0  0  0  0  0  0  0  0  0  0  0  0
    0.6787    8.8692   -0.9371 C   0  0  0  0  0  0  0  0  0  0  0  0
    1.6095    9.7863   -1.7135 C   0  0  0  0  0  0  0  0  0  0  0  0
    1.2740   10.5328   -3.0063 C   0  0  0  0  0  0  0  0  0  0  0  0
    1.5173   11.3142   -1.7126 C   0  0  0  0  0  0  0  0  0  0  0  0
    1.2114    6.1049   -0.3088 N   0  0  0  0  0  0  0  0  0  0  0  0
    1.5036    4.7774    0.0548 C   0  0  0  0  0  0  0  0  0  0  0  0
    1.0958    3.7224   -0.7455 N   0  0  0  0  0  0  0  0  0  0  0  0
    0.3865    3.9861   -1.9262 C   0  0  0  0  0  0  0  0  0  0  0  0
    0.6879   -0.3725    0.8862 H   0  0  0  0  0  0  0  0  0  0  0  0
    0.6879    0.9338   -0.2742 H   0  0  0  0  0  0  0  0  0  0  0  0
    2.1146   -0.0543   -0.0711 H   0  0  0  0  0  0  0  0  0  0  0  0
    1.5456   -2.6211   -3.7019 H   0  0  0  0  0  0  0  0  0  0  0  0
    2.8502   -1.5688   -5.5741 H   0  0  0  0  0  0  0  0  0  0  0  0
    2.2285    0.5998   -6.3788 H   0  0  0  0  0  0  0  0  0  0  0  0
    1.2782    2.1470   -4.7164 H   0  0  0  0  0  0  0  0  0  0  0  0
   -0.2138    1.1749   -1.5103 H   0  0  0  0  0  0  0  0  0  0  0  0
   -1.9672    6.4531   -6.7411 H   0  0  0  0  0  0  0  0  0  0  0  0
   -0.3061    5.9558   -6.4288 H   0  0  0  0  0  0  0  0  0  0  0  0
   -0.6528    3.9893   -7.8176 H   0  0  0  0  0  0  0  0  0  0  0  0
   -0.9755    5.4559   -8.7213 H   0  0  0  0  0  0  0  0  0  0  0  0
   -2.6924    6.1057   -8.3408 H   0  0  0  0  0  0  0  0  0  0  0  0
   -3.3914    6.9322   -6.8529 H   0  0  0  0  0  0  0  0  0  0  0  0
   -4.1485    7.5392   -8.3184 H   0  0  0  0  0  0  0  0  0  0  0  0
   -5.3559    5.6325   -6.3478 H   0  0  0  0  0  0  0  0  0  0  0  0
   -5.7855    7.3224   -6.5464 H   0  0  0  0  0  0  0  0  0  0  0  0
   -7.3192    5.9276   -7.6752 H   0  0  0  0  0  0  0  0  0  0  0  0
   -6.6803    4.5571   -9.4757 H   0  0  0  0  0  0  0  0  0  0  0  0
   -5.8738    4.0634   -7.9935 H   0  0  0  0  0  0  0  0  0  0  0  0
   -4.7128    5.7598  -10.1788 H   0  0  0  0  0  0  0  0  0  0  0  0
   -4.2996    4.0884   -9.8373 H   0  0  0  0  0  0  0  0  0  0  0  0
   -2.4645    2.7021   -6.9705 H   0  0  0  0  0  0  0  0  0  0  0  0
   -4.1256    3.1993   -7.2828 H   0  0  0  0  0  0  0  0  0  0  0  0
   -3.4489    3.6934   -4.9919 H   0  0  0  0  0  0  0  0  0  0  0  0
   -3.7841    5.1627   -5.8869 H   0  0  0  0  0  0  0  0  0  0  0  0
   -0.2835    7.9798   -2.6645 H   0  0  0  0  0  0  0  0  0  0  0  0
   -0.1706    9.4257   -0.5997 H   0  0  0  0  0  0  0  0  0  0  0  0
    1.1982    8.4649   -0.0936 H   0  0  0  0  0  0  0  0  0  0  0  0
    2.3445    9.0589   -1.4387 H   0  0  0  0  0  0  0  0  0  0  0  0
    1.6849   10.5579   -3.9939 H   0  0  0  0  0  0  0  0  0  0  0  0
    0.2881   10.4734   -3.4179 H   0  0  0  0  0  0  0  0  0  0  0  0
    0.9655   12.0387   -1.1509 H   0  0  0  0  0  0  0  0  0  0  0  0
    2.4035   11.9036   -1.6022 H   0  0  0  0  0  0  0  0  0  0  0  0
    2.0450    4.5811    0.9566 H   0  0  0  0  0  0  0  0  0  0  0  0
  1  2  1  0  0  0  0
  1 37  1  0  0  0  0
  1 38  1  0  0  0  0
  1 39  1  0  0  0  0
  2  3  1  0  0  0  0
  3  4  1  0  0  0  0
  3  8  2  0  0  0  0
  4  5  2  0  0  0  0
  4 40  1  0  0  0  0
  5  6  1  0  0  0  0
  5 41  1  0  0  0  0
  6  7  2  0  0  0  0
  6 42  1  0  0  0  0
  7  8  1  0  0  0  0
  7 43  1  0  0  0  0
  8  9  1  0  0  0  0
  9 10  1  0  0  0  0
  9 44  1  0  0  0  0
 10 11  1  0  0  0  0
 10 36  2  0  0  0  0
 11 12  2  0  0  0  0
 12 13  1  0  0  0  0
 12 25  1  0  0  0  0
 13 14  1  0  0  0  0
 13 24  1  0  0  0  0
 14 15  1  0  0  0  0
 14 45  1  0  0  0  0
 14 46  1  0  0  0  0
 15 16  1  0  0  0  0
 15 47  1  0  0  0  0
 15 48  1  0  0  0  0
 16 17  1  0  0  0  0
 16 23  1  0  0  0  0
 17 18  1  0  0  0  0
 17 22  1  0  0  0  0
 17 49  1  0  0  0  0
 18 19  1  0  0  0  0
 18 50  1  0  0  0  0
 18 51  1  0  0  0  0
 19 20  1  0  0  0  0
 19 52  1  0  0  0  0
 19 53  1  0  0  0  0
 20 21  1  0  0  0  0
 20 54  1  0  0  0  0
 21 22  1  0  0  0  0
 21 55  1  0  0  0  0
 21 56  1  0  0  0  0
 22 57  1  0  0  0  0
 22 58  1  0  0  0  0
 23 24  1  0  0  0  0
 23 59  1  0  0  0  0
 23 60  1  0  0  0  0
 24 61  1  0  0  0  0
 24 62  1  0  0  0  0
 25 26  2  0  0  0  0
 26 27  1  0  0  0  0
 26 36  1  0  0  0  0
 27 28  1  0  0  0  0
 27 33  2  0  0  0  0
 28 29  1  0  0  0  0
 28 63  1  0  0  0  0
 29 30  1  0  0  0  0
 29 64  1  0  0  0  0
 29 65  1  0  0  0  0
 30 31  1  0  0  0  0
 30 32  1  0  0  0  0
 30 66  1  0  0  0  0
 31 32  1  0  0  0  0
 31 67  1  0  0  0  0
 31 68  1  0  0  0  0
 32 69  1  0  0  0  0
 32 70  1  0  0  0  0
 33 34  1  0  0  0  0
 34 35  2  0  0  0  0
 34 71  1  0  0  0  0
 35 36  1  0  0  0  0
M  END
