
 OpenBabel03132514253D

 44 47  0  0  0  0  0  0  0  0999 V2000
   -2.1330   -0.0150    0.0760 C   0  0  0  0  0  0  0  0  0  0  0  0
   -0.7290    0.0030   -0.3280 N   0  0  0  0  0  0  0  0  0  0  0  0
    0.0090    1.1700    0.1800 C   0  0  0  0  0  0  0  0  0  0  0  0
    1.4850    0.7610   -0.0230 C   0  0  0  0  0  0  0  0  0  0  0  0
    1.4730   -0.7820   -0.0590 C   0  0  0  0  0  0  0  0  0  0  0  0
    2.4255   -1.4023    0.9502 C   0  0  0  0  0  0  0  0  0  0  0  0
    3.2668   -0.5573    1.6551 C   0  0  0  0  0  0  0  0  0  0  0  0
    4.3546   -1.2172    2.2742 C   0  0  0  0  0  0  0  0  0  0  0  0
    4.4125   -2.5173    2.4985 C   0  0  0  0  0  0  0  0  0  0  0  0
    5.4279   -3.1205    3.4553 C   0  0  0  0  0  0  0  0  0  0  0  0
    5.4424   -2.6662    4.7637 C   0  0  0  0  0  0  0  0  0  0  0  0
    6.6217   -2.9968    5.4723 C   0  0  0  0  0  0  0  0  0  0  0  0
    6.9089   -2.2601    6.6760 C   0  0  0  0  0  0  0  0  0  0  0  0
    5.9590   -1.1700    7.1447 C   0  0  0  0  0  0  0  0  0  0  0  0
    6.2125   -0.5198    8.2069 O   0  0  0  0  0  0  0  0  0  0  0  0
    4.7885   -0.8779    6.3958 O   0  0  0  0  0  0  0  0  0  0  0  0
    8.0961   -2.5563    7.4356 C   0  0  0  0  0  0  0  0  0  0  0  0
    8.4398   -4.4310    5.9821 N   0  0  0  0  0  0  0  0  0  0  0  0
    7.4773   -3.9340    5.1066 C   0  0  0  0  0  0  0  0  0  0  0  0
    7.3675   -4.3901    3.8223 C   0  0  0  0  0  0  0  0  0  0  0  0
    6.3150   -4.0101    3.0251 C   0  0  0  0  0  0  0  0  0  0  0  0
    6.1389   -4.7166    1.4008 Cl  0  0  0  0  0  0  0  0  0  0  0  0
    3.5098   -3.2916    1.8239 C   0  0  0  0  0  0  0  0  0  0  0  0
    2.4971   -2.7206    1.0915 C   0  0  0  0  0  0  0  0  0  0  0  0
    0.0160   -1.1380    0.2080 C   0  0  0  0  0  0  0  0  0  0  0  0
   -2.1966   -0.0340    1.1439 H   0  0  0  0  0  0  0  0  0  0  0  0
   -2.6221    0.8614   -0.2949 H   0  0  0  0  0  0  0  0  0  0  0  0
   -2.6084   -0.8856   -0.3252 H   0  0  0  0  0  0  0  0  0  0  0  0
   -0.2487    2.0818   -0.3171 H   0  0  0  0  0  0  0  0  0  0  0  0
   -0.2045    1.3398    1.2146 H   0  0  0  0  0  0  0  0  0  0  0  0
    2.1164    1.1391    0.7537 H   0  0  0  0  0  0  0  0  0  0  0  0
    1.8609    1.1554   -0.9439 H   0  0  0  0  0  0  0  0  0  0  0  0
    1.7849   -1.1438   -1.0165 H   0  0  0  0  0  0  0  0  0  0  0  0
    3.1084    0.4986    1.7250 H   0  0  0  0  0  0  0  0  0  0  0  0
    5.1883   -0.6213    2.5821 H   0  0  0  0  0  0  0  0  0  0  0  0
    4.6351   -2.1153    5.1991 H   0  0  0  0  0  0  0  0  0  0  0  0
    4.1636   -0.1607    6.7042 H   0  0  0  0  0  0  0  0  0  0  0  0
    8.3095   -2.0089    8.3298 H   0  0  0  0  0  0  0  0  0  0  0  0
    9.0872   -5.1551    5.6707 H   0  0  0  0  0  0  0  0  0  0  0  0
    8.1119   -5.0525    3.4325 H   0  0  0  0  0  0  0  0  0  0  0  0
    3.5932   -4.3574    1.8668 H   0  0  0  0  0  0  0  0  0  0  0  0
    1.7595   -3.3440    0.6308 H   0  0  0  0  0  0  0  0  0  0  0  0
   -0.1833   -1.3107    1.2450 H   0  0  0  0  0  0  0  0  0  0  0  0
   -0.2543   -2.0410   -0.2984 H   0  0  0  0  0  0  0  0  0  0  0  0
  1  2  1  0  0  0  0
  1 26  1  0  0  0  0
  1 27  1  0  0  0  0
  1 28  1  0  0  0  0
  2  3  1  0  0  0  0
  2 25  1  0  0  0  0
  3  4  1  0  0  0  0
  3 29  1  0  0  0  0
  3 30  1  0  0  0  0
  4  5  1  0  0  0  0
  4 31  1  0  0  0  0
  4 32  1  0  0  0  0
  5  6  1  0  0  0  0
  5 25  1  0  0  0  0
  5 33  1  0  0  0  0
  6  7  1  0  0  0  0
  6 24  2  0  0  0  0
  7  8  2  0  0  0  0
  7 34  1  0  0  0  0
  8  9  1  0  0  0  0
  8 35  1  0  0  0  0
  9 10  1  0  0  0  0
  9 23  2  0  0  0  0
 10 11  1  0  0  0  0
 10 21  2  0  0  0  0
 11 12  2  0  0  0  0
 11 36  1  0  0  0  0
 12 13  1  0  0  0  0
 12 19  1  0  0  0  0
 13 14  1  0  0  0  0
 13 17  2  0  0  0  0
 14 15  2  0  0  0  0
 14 16  1  0  0  0  0
 16 37  1  0  0  0  0
 17 18  1  0  0  0  0
 17 38  1  0  0  0  0
 18 19  1  0  0  0  0
 18 39  1  0  0  0  0
 19 20  2  0  0  0  0
 20 21  1  0  0  0  0
 20 40  1  0  0  0  0
 21 22  1  0  0  0  0
 23 24  1  0  0  0  0
 23 41  1  0  0  0  0
 24 42  1  0  0  0  0
 25 43  1  0  0  0  0
 25 44  1  0  0  0  0
M  END
