
 OpenBabel03132514253D

 29 30  0  0  0  0  0  0  0  0999 V2000
    0.9981    0.0638   -0.0770 O   0  0  0  0  0  0  0  0  0  0  0  0
    2.2690    0.0638   -0.0770 C   0  0  0  0  0  0  0  0  0  0  0  0
    3.0290    1.0061    0.8421 C   0  0  0  0  0  0  0  0  0  0  0  0
    3.9029    0.1972    1.7868 C   0  0  0  0  0  0  0  0  0  0  0  0
    5.1631    0.3618    1.7844 O   0  0  0  0  0  0  0  0  0  0  0  0
    3.2696   -0.8085    2.7343 C   0  0  0  0  0  0  0  0  0  0  0  0
    3.7457   -0.9960    4.0215 C   0  0  0  0  0  0  0  0  0  0  0  0
    3.3828   -2.2392    4.5915 C   0  0  0  0  0  0  0  0  0  0  0  0
    2.4076   -3.0108    4.1469 C   0  0  0  0  0  0  0  0  0  0  0  0
    1.9337   -2.7315    2.8952 C   0  0  0  0  0  0  0  0  0  0  0  0
    2.3396   -1.6052    2.2210 C   0  0  0  0  0  0  0  0  0  0  0  0
    3.0290   -0.8786   -0.9961 C   0  0  0  0  0  0  0  0  0  0  0  0
    4.0182   -1.6291   -0.3822 C   0  0  0  0  0  0  0  0  0  0  0  0
    4.8258   -2.3609   -1.2846 C   0  0  0  0  0  0  0  0  0  0  0  0
    4.4980   -2.6281   -2.5357 C   0  0  0  0  0  0  0  0  0  0  0  0
    3.4678   -1.9002   -3.0631 C   0  0  0  0  0  0  0  0  0  0  0  0
    2.7155   -1.0649   -2.2729 C   0  0  0  0  0  0  0  0  0  0  0  0
    3.6442    1.6567    0.2562 H   0  0  0  0  0  0  0  0  0  0  0  0
    2.3337    1.5883    1.4099 H   0  0  0  0  0  0  0  0  0  0  0  0
    4.3344   -0.2669    4.5379 H   0  0  0  0  0  0  0  0  0  0  0  0
    3.9371   -2.5777    5.4418 H   0  0  0  0  0  0  0  0  0  0  0  0
    2.0096   -3.8114    4.7347 H   0  0  0  0  0  0  0  0  0  0  0  0
    1.2367   -3.3997    2.4340 H   0  0  0  0  0  0  0  0  0  0  0  0
    1.9023   -1.3679    1.2737 H   0  0  0  0  0  0  0  0  0  0  0  0
    4.1588   -1.6534    0.6782 H   0  0  0  0  0  0  0  0  0  0  0  0
    5.7677   -2.7229   -0.9286 H   0  0  0  0  0  0  0  0  0  0  0  0
    5.0110   -3.3742   -3.1058 H   0  0  0  0  0  0  0  0  0  0  0  0
    3.2441   -1.9821   -4.1063 H   0  0  0  0  0  0  0  0  0  0  0  0
    1.8694   -0.5601   -2.6902 H   0  0  0  0  0  0  0  0  0  0  0  0
  1  2  2  0  0  0  0
  2  3  1  0  0  0  0
  2 12  1  0  0  0  0
  3  4  1  0  0  0  0
  3 18  1  0  0  0  0
  3 19  1  0  0  0  0
  4  5  2  0  0  0  0
  4  6  1  0  0  0  0
  6  7  1  0  0  0  0
  6 11  2  0  0  0  0
  7  8  2  0  0  0  0
  7 20  1  0  0  0  0
  8  9  1  0  0  0  0
  8 21  1  0  0  0  0
  9 10  2  0  0  0  0
  9 22  1  0  0  0  0
 10 11  1  0  0  0  0
 10 23  1  0  0  0  0
 11 24  1  0  0  0  0
 12 13  1  0  0  0  0
 12 17  2  0  0  0  0
 13 14  2  0  0  0  0
 13 25  1  0  0  0  0
 14 15  1  0  0  0  0
 14 26  1  0  0  0  0
 15 16  2  0  0  0  0
 15 27  1  0  0  0  0
 16 17  1  0  0  0  0
 16 28  1  0  0  0  0
 17 29  1  0  0  0  0
M  END
