
 OpenBabel03132514253D

 27 26  0  0  0  0  0  0  0  0999 V2000
    1.0043   -0.0909    0.0416 C   0  0  0  0  0  0  0  0  0  0  0  0
    0.4976   -0.8391    1.2638 C   0  0  0  0  0  0  0  0  0  0  0  0
    1.0042   -0.1547    2.5229 C   0  0  0  0  0  0  0  0  0  0  0  0
    0.4976    1.2779    2.5597 C   0  0  0  0  0  0  0  0  0  0  0  0
   -1.6524    1.2779    2.5597 Sn  0  0  0  0  0  0  0  0  0  0  0  0
   -2.3691    0.3099    0.7788 C   0  0  0  0  0  0  0  0  0  0  0  0
   -1.8624    1.0581   -0.4435 C   0  0  0  0  0  0  0  0  0  0  0  0
   -0.3424    1.0581   -0.4435 C   0  0  0  0  0  0  0  0  0  0  0  0
    0.1643   -0.3745   -0.4803 C   0  0  0  0  0  0  0  0  0  0  0  0
    0.6476    0.9176    0.0675 H   0  0  0  0  0  0  0  0  0  0  0  0
    0.6476   -0.5726   -0.8448 H   0  0  0  0  0  0  0  0  0  0  0  0
    2.0743   -0.0909    0.0416 H   0  0  0  0  0  0  0  0  0  0  0  0
   -0.5724   -0.8391    1.2638 H   0  0  0  0  0  0  0  0  0  0  0  0
    0.8543   -1.8475    1.2379 H   0  0  0  0  0  0  0  0  0  0  0  0
    0.6476   -0.6814    3.3833 H   0  0  0  0  0  0  0  0  0  0  0  0
    2.0742   -0.1547    2.5229 H   0  0  0  0  0  0  0  0  0  0  0  0
    0.8542    1.7597    3.4461 H   0  0  0  0  0  0  0  0  0  0  0  0
    0.8542    1.8046    1.6993 H   0  0  0  0  0  0  0  0  0  0  0  0
   -2.0124   -0.6986    0.7529 H   0  0  0  0  0  0  0  0  0  0  0  0
   -3.4391    0.3099    0.7788 H   0  0  0  0  0  0  0  0  0  0  0  0
   -2.2191    0.5763   -1.3298 H   0  0  0  0  0  0  0  0  0  0  0  0
   -2.2191    2.0666   -0.4175 H   0  0  0  0  0  0  0  0  0  0  0  0
    0.0143    1.5848   -1.3038 H   0  0  0  0  0  0  0  0  0  0  0  0
    0.0143    1.5399    0.4429 H   0  0  0  0  0  0  0  0  0  0  0  0
   -0.1924   -0.8563   -1.3666 H   0  0  0  0  0  0  0  0  0  0  0  0
    1.2343   -0.3745   -0.4803 H   0  0  0  0  0  0  0  0  0  0  0  0
   -0.1924   -0.9012    0.3801 H   0  0  0  0  0  0  0  0  0  0  0  0
  1  2  1  0  0  0  0
  1 10  1  0  0  0  0
  1 11  1  0  0  0  0
  1 12  1  0  0  0  0
  2  3  1  0  0  0  0
  2 13  1  0  0  0  0
  2 14  1  0  0  0  0
  3  4  1  0  0  0  0
  3 15  1  0  0  0  0
  3 16  1  0  0  0  0
  4  5  1  0  0  0  0
  4 17  1  0  0  0  0
  4 18  1  0  0  0  0
  5  6  1  0  0  0  0
  6  7  1  0  0  0  0
  6 19  1  0  0  0  0
  6 20  1  0  0  0  0
  7  8  1  0  0  0  0
  7 21  1  0  0  0  0
  7 22  1  0  0  0  0
  8  9  1  0  0  0  0
  8 23  1  0  0  0  0
  8 24  1  0  0  0  0
  9 25  1  0  0  0  0
  9 26  1  0  0  0  0
  9 27  1  0  0  0  0
M  END
