
 OpenBabel03132514253D

 52 51  0  0  0  0  0  0  0  0999 V2000
    0.9331    0.0642   -0.0375 C   0  0  0  0  0  0  0  0  0  0  0  0
    0.4264   -1.3598   -0.1983 C   0  0  0  0  0  0  0  0  0  0  0  0
    0.9331   -2.2111    0.9546 C   0  0  0  0  0  0  0  0  0  0  0  0
    0.0490   -2.8253    1.7864 C   0  0  0  0  0  0  0  0  0  0  0  0
    0.5557   -3.6766    2.9392 C   0  0  0  0  0  0  0  0  0  0  0  0
    0.0490   -3.1039    4.2528 C   0  0  0  0  0  0  0  0  0  0  0  0
   -0.7331   -3.8613    5.0685 C   0  0  0  0  0  0  0  0  0  0  0  0
   -1.2397   -3.2886    6.3821 C   0  0  0  0  0  0  0  0  0  0  0  0
   -2.7597   -3.2886    6.3821 C   0  0  0  0  0  0  0  0  0  0  0  0
   -3.4399   -3.9884    7.3299 C   0  0  0  0  0  0  0  0  0  0  0  0
   -4.9599   -3.9884    7.3299 C   0  0  0  0  0  0  0  0  0  0  0  0
   -5.4666   -5.4124    7.1691 C   0  0  0  0  0  0  0  0  0  0  0  0
   -6.2487   -5.9690    8.1330 C   0  0  0  0  0  0  0  0  0  0  0  0
   -6.7554   -7.3930    7.9722 C   0  0  0  0  0  0  0  0  0  0  0  0
   -6.2487   -8.2443    9.1250 C   0  0  0  0  0  0  0  0  0  0  0  0
   -7.1328   -8.8585    9.9568 C   0  0  0  0  0  0  0  0  0  0  0  0
   -6.6261   -9.7098   11.1097 C   0  0  0  0  0  0  0  0  0  0  0  0
   -7.1328   -9.1371   12.4233 C   0  0  0  0  0  0  0  0  0  0  0  0
   -8.6528   -9.1371   12.4233 C   0  0  0  0  0  0  0  0  0  0  0  0
   -9.1595  -10.5611   12.2625 C   0  0  0  0  0  0  0  0  0  0  0  0
   -9.8901  -11.0811   13.1630 O   0  0  0  0  0  0  0  0  0  0  0  0
   -8.8164  -11.3104   11.1061 O   0  0  0  0  0  0  0  0  0  0  0  0
    0.5764    0.4674    0.8873 H   0  0  0  0  0  0  0  0  0  0  0  0
    0.5764    0.6634   -0.8490 H   0  0  0  0  0  0  0  0  0  0  0  0
    2.0031    0.0642   -0.0375 H   0  0  0  0  0  0  0  0  0  0  0  0
   -0.6436   -1.3598   -0.1983 H   0  0  0  0  0  0  0  0  0  0  0  0
    0.7831   -1.7630   -1.1230 H   0  0  0  0  0  0  0  0  0  0  0  0
    1.9851   -2.3273    1.1118 H   0  0  0  0  0  0  0  0  0  0  0  0
   -1.0029   -2.7092    1.6291 H   0  0  0  0  0  0  0  0  0  0  0  0
    0.1990   -4.6790    2.8260 H   0  0  0  0  0  0  0  0  0  0  0  0
    1.6257   -3.6766    2.9392 H   0  0  0  0  0  0  0  0  0  0  0  0
    0.3075   -2.1049    4.5360 H   0  0  0  0  0  0  0  0  0  0  0  0
   -0.9916   -4.8602    4.7853 H   0  0  0  0  0  0  0  0  0  0  0  0
   -0.8831   -3.8878    7.1937 H   0  0  0  0  0  0  0  0  0  0  0  0
   -0.8831   -2.2861    6.4953 H   0  0  0  0  0  0  0  0  0  0  0  0
   -3.2947   -2.7381    5.6367 H   0  0  0  0  0  0  0  0  0  0  0  0
   -2.9049   -4.5388    8.0753 H   0  0  0  0  0  0  0  0  0  0  0  0
   -5.3166   -3.5852    8.2546 H   0  0  0  0  0  0  0  0  0  0  0  0
   -5.3166   -3.3891    6.5183 H   0  0  0  0  0  0  0  0  0  0  0  0
   -5.2081   -5.9770    6.2977 H   0  0  0  0  0  0  0  0  0  0  0  0
   -6.5072   -5.4044    9.0044 H   0  0  0  0  0  0  0  0  0  0  0  0
   -7.8254   -7.3930    7.9722 H   0  0  0  0  0  0  0  0  0  0  0  0
   -6.3987   -7.7962    7.0475 H   0  0  0  0  0  0  0  0  0  0  0  0
   -5.1968   -8.3605    9.2823 H   0  0  0  0  0  0  0  0  0  0  0  0
   -8.1848   -8.7424    9.7996 H   0  0  0  0  0  0  0  0  0  0  0  0
   -6.9828  -10.7122   10.9965 H   0  0  0  0  0  0  0  0  0  0  0  0
   -5.5561   -9.7098   11.1097 H   0  0  0  0  0  0  0  0  0  0  0  0
   -6.7761   -9.7363   13.2349 H   0  0  0  0  0  0  0  0  0  0  0  0
   -6.7761   -8.1346   12.5365 H   0  0  0  0  0  0  0  0  0  0  0  0
   -9.0095   -8.7339   13.3481 H   0  0  0  0  0  0  0  0  0  0  0  0
   -9.0094   -8.5378   11.6118 H   0  0  0  0  0  0  0  0  0  0  0  0
   -9.1497  -12.2473   11.0003 H   0  0  0  0  0  0  0  0  0  0  0  0
  1  2  1  0  0  0  0
  1 23  1  0  0  0  0
  1 24  1  0  0  0  0
  1 25  1  0  0  0  0
  2  3  1  0  0  0  0
  2 26  1  0  0  0  0
  2 27  1  0  0  0  0
  3  4  2  0  0  0  0
  3 28  1  0  0  0  0
  4  5  1  0  0  0  0
  4 29  1  0  0  0  0
  5  6  1  0  0  0  0
  5 30  1  0  0  0  0
  5 31  1  0  0  0  0
  6  7  2  0  0  0  0
  6 32  1  0  0  0  0
  7  8  1  0  0  0  0
  7 33  1  0  0  0  0
  8  9  1  0  0  0  0
  8 34  1  0  0  0  0
  8 35  1  0  0  0  0
  9 10  2  0  0  0  0
  9 36  1  0  0  0  0
 10 11  1  0  0  0  0
 10 37  1  0  0  0  0
 11 12  1  0  0  0  0
 11 38  1  0  0  0  0
 11 39  1  0  0  0  0
 12 13  2  0  0  0  0
 12 40  1  0  0  0  0
 13 14  1  0  0  0  0
 13 41  1  0  0  0  0
 14 15  1  0  0  0  0
 14 42  1  0  0  0  0
 14 43  1  0  0  0  0
 15 16  2  0  0  0  0
 15 44  1  0  0  0  0
 16 17  1  0  0  0  0
 16 45  1  0  0  0  0
 17 18  1  0  0  0  0
 17 46  1  0  0  0  0
 17 47  1  0  0  0  0
 18 19  1  0  0  0  0
 18 48  1  0  0  0  0
 18 49  1  0  0  0  0
 19 20  1  0  0  0  0
 19 50  1  0  0  0  0
 19 51  1  0  0  0  0
 20 21  2  0  0  0  0
 20 22  1  0  0  0  0
 22 52  1  0  0  0  0
M  END
