
 OpenBabel03132514253D

127132  0  0  0  0  0  0  0  0999 V2000
    1.0154   -0.0727   -0.0669 C   0  0  0  0  0  0  0  0  0  0  0  0
    0.5087    1.3604   -0.0664 C   0  0  0  0  0  0  0  0  0  0  0  0
    1.0154    2.0774   -1.3072 C   0  0  0  0  0  0  0  0  0  0  0  0
   -1.0113    1.3604   -0.0664 C   0  0  0  0  0  0  0  0  0  0  0  0
   -1.6468    1.9103    0.8870 O   0  0  0  0  0  0  0  0  0  0  0  0
   -1.7713    0.7026   -1.2066 C   0  0  0  0  0  0  0  0  0  0  0  0
   -1.4041    1.3794   -2.5172 C   0  0  0  0  0  0  0  0  0  0  0  0
    0.0903    1.2407   -2.7578 C   0  0  0  0  0  0  0  0  0  0  0  0
    0.9265    1.1679   -1.4905 C   0  0  0  0  0  0  0  0  0  0  0  0
    0.3197   -0.0457   -3.4514 C   0  0  0  0  0  0  0  0  0  0  0  0
    0.9620   -1.0263   -2.4687 C   0  0  0  0  0  0  0  0  0  0  0  0
    0.0469   -2.0726   -2.1784 O   0  0  0  0  0  0  0  0  0  0  0  0
    2.1458   -1.5768   -3.0494 C   0  0  0  0  0  0  0  0  0  0  0  0
    2.6906   -2.3472   -4.2411 C   0  0  0  0  0  0  0  0  0  0  0  0
    1.3381    3.3250   -2.4794 C   0  0  0  0  0  0  0  0  0  0  0  0
    2.6203    3.6257   -3.0364 C   0  0  0  0  0  0  0  0  0  0  0  0
    3.0217    3.1520   -4.1453 O   0  0  0  0  0  0  0  0  0  0  0  0
    3.4096    4.5061   -2.2349 C   0  0  0  0  0  0  0  0  0  0  0  0
    4.8858    4.3458   -2.6029 C   0  0  0  0  0  0  0  0  0  0  0  0
    5.4530    3.2786   -1.8404 C   0  0  0  0  0  0  0  0  0  0  0  0
    4.4058    3.7686   -0.8537 C   0  0  0  0  0  0  0  0  0  0  0  0
    6.8529    3.0889   -2.0592 C   0  0  0  0  0  0  0  0  0  0  0  0
    7.3180    1.8301   -1.3238 C   0  0  0  0  0  0  0  0  0  0  0  0
    6.7838    0.6747   -1.9740 C   0  0  0  0  0  0  0  0  0  0  0  0
    5.3728    0.8326   -1.9994 O   0  0  0  0  0  0  0  0  0  0  0  0
    4.8808    0.9065   -0.6694 C   0  0  0  0  0  0  0  0  0  0  0  0
    5.2428   -0.3764    0.0827 O   0  0  0  0  0  0  0  0  0  0  0  0
    6.6648   -0.5001    0.1555 C   0  0  0  0  0  0  0  0  0  0  0  0
    7.1820   -0.4637   -1.2733 C   0  0  0  0  0  0  0  0  0  0  0  0
    8.5943   -0.6109   -1.2694 O   0  0  0  0  0  0  0  0  0  0  0  0
    7.3079    0.5677    0.8540 C   0  0  0  0  0  0  0  0  0  0  0  0
    8.7080    0.3342    0.8907 O   0  0  0  0  0  0  0  0  0  0  0  0
    7.0293    1.8887    0.1331 C   0  0  0  0  0  0  0  0  0  0  0  0
    7.5820    1.8454   -1.1742 O   0  0  0  0  0  0  0  0  0  0  0  0
    5.5152    2.1039    0.0457 C   0  0  0  0  0  0  0  0  0  0  0  0
    5.2412    3.2946   -0.6780 O   0  0  0  0  0  0  0  0  0  0  0  0
    5.7795    3.1869   -1.9876 C   0  0  0  0  0  0  0  0  0  0  0  0
    7.2925    2.9724   -1.9037 O   0  0  0  0  0  0  0  0  0  0  0  0
    7.5619    1.7428   -1.2269 C   0  0  0  0  0  0  0  0  0  0  0  0
    6.8818    1.8306    0.1296 C   0  0  0  0  0  0  0  0  0  0  0  0
    7.1374    0.6431    0.8650 O   0  0  0  0  0  0  0  0  0  0  0  0
    7.0303    0.5889   -1.8806 C   0  0  0  0  0  0  0  0  0  0  0  0
    7.3757   -0.5745   -1.1433 O   0  0  0  0  0  0  0  0  0  0  0  0
    5.5066    0.7070   -1.9636 C   0  0  0  0  0  0  0  0  0  0  0  0
    4.9581    0.7415   -0.6543 O   0  0  0  0  0  0  0  0  0  0  0  0
    5.1424    1.9948   -2.7091 C   0  0  0  0  0  0  0  0  0  0  0  0
    3.7311    2.1497   -2.7368 O   0  0  0  0  0  0  0  0  0  0  0  0
    7.0510   -0.5518   -1.2903 C   0  0  0  0  0  0  0  0  0  0  0  0
    8.5531   -0.7387   -1.1522 C   0  0  0  0  0  0  0  0  0  0  0  0
    6.4170   -0.5109    0.0906 C   0  0  0  0  0  0  0  0  0  0  0  0
    6.4626   -1.7179   -2.0875 C   0  0  0  0  0  0  0  0  0  0  0  0
    5.1247   -1.9655   -1.6499 C   0  0  0  0  0  0  0  0  0  0  0  0
    4.2990   -2.5925   -2.6338 C   0  0  0  0  0  0  0  0  0  0  0  0
    2.8331   -2.4996   -2.2027 C   0  0  0  0  0  0  0  0  0  0  0  0
    2.2399   -3.6978   -1.4796 C   0  0  0  0  0  0  0  0  0  0  0  0
    0.5473    2.4580   -3.4614 C   0  0  0  0  0  0  0  0  0  0  0  0
    1.3702    2.1003   -4.5620 O   0  0  0  0  0  0  0  0  0  0  0  0
    0.6587   -0.5768   -0.9408 H   0  0  0  0  0  0  0  0  0  0  0  0
    0.6587   -0.5774    0.8065 H   0  0  0  0  0  0  0  0  0  0  0  0
    2.0854   -0.0727   -0.0669 H   0  0  0  0  0  0  0  0  0  0  0  0
    0.8654    1.8644    0.8075 H   0  0  0  0  0  0  0  0  0  0  0  0
    0.6587    1.5733   -2.1810 H   0  0  0  0  0  0  0  0  0  0  0  0
    0.6587    3.0862   -1.3068 H   0  0  0  0  0  0  0  0  0  0  0  0
    2.0854    2.0774   -1.3072 H   0  0  0  0  0  0  0  0  0  0  0  0
   -1.5128   -0.3345   -1.2561 H   0  0  0  0  0  0  0  0  0  0  0  0
   -2.8233    0.8003   -1.0373 H   0  0  0  0  0  0  0  0  0  0  0  0
   -1.9391    0.9164   -3.3198 H   0  0  0  0  0  0  0  0  0  0  0  0
   -1.6626    2.4166   -2.4677 H   0  0  0  0  0  0  0  0  0  0  0  0
    0.7843    2.0604   -0.9177 H   0  0  0  0  0  0  0  0  0  0  0  0
    0.6237    0.3205   -0.9116 H   0  0  0  0  0  0  0  0  0  0  0  0
    1.9600    1.0716   -1.7502 H   0  0  0  0  0  0  0  0  0  0  0  0
   -0.6103   -0.4402   -3.8040 H   0  0  0  0  0  0  0  0  0  0  0  0
    0.9721    0.1067   -4.2857 H   0  0  0  0  0  0  0  0  0  0  0  0
    1.2141   -0.5118   -1.5650 H   0  0  0  0  0  0  0  0  0  0  0  0
   -0.1887   -2.5533   -3.0231 H   0  0  0  0  0  0  0  0  0  0  0  0
    2.2115   -3.3023   -4.2976 H   0  0  0  0  0  0  0  0  0  0  0  0
    2.4982   -1.7980   -5.1390 H   0  0  0  0  0  0  0  0  0  0  0  0
    3.7455   -2.4836   -4.1255 H   0  0  0  0  0  0  0  0  0  0  0  0
    1.0235    4.1016   -1.8140 H   0  0  0  0  0  0  0  0  0  0  0  0
    3.1060    5.5169   -2.4110 H   0  0  0  0  0  0  0  0  0  0  0  0
    3.2719    4.2670   -1.2011 H   0  0  0  0  0  0  0  0  0  0  0  0
    5.3446    5.2037   -3.0484 H   0  0  0  0  0  0  0  0  0  0  0  0
    3.4635    3.3144   -1.0788 H   0  0  0  0  0  0  0  0  0  0  0  0
    4.7008    3.5041    0.1402 H   0  0  0  0  0  0  0  0  0  0  0  0
    4.3158    4.8322   -0.9279 H   0  0  0  0  0  0  0  0  0  0  0  0
    7.0383    2.9788   -3.1072 H   0  0  0  0  0  0  0  0  0  0  0  0
    7.3899    3.9371   -1.6892 H   0  0  0  0  0  0  0  0  0  0  0  0
    8.3870    1.7841   -1.3356 H   0  0  0  0  0  0  0  0  0  0  0  0
    6.9740    1.8607   -0.3111 H   0  0  0  0  0  0  0  0  0  0  0  0
    7.2088    0.6132   -2.9540 H   0  0  0  0  0  0  0  0  0  0  0  0
    3.8174    1.0224   -0.6923 H   0  0  0  0  0  0  0  0  0  0  0  0
    6.8972   -1.4170    0.6557 H   0  0  0  0  0  0  0  0  0  0  0  0
    6.7416   -1.2627   -1.8325 H   0  0  0  0  0  0  0  0  0  0  0  0
    6.9221    0.4718   -1.7230 H   0  0  0  0  0  0  0  0  0  0  0  0
    9.0058    0.1358   -0.7469 H   0  0  0  0  0  0  0  0  0  0  0  0
    6.9289    0.6197    1.8532 H   0  0  0  0  0  0  0  0  0  0  0  0
    9.0625    0.2855   -0.0431 H   0  0  0  0  0  0  0  0  0  0  0  0
    7.4747    2.6948    0.6779 H   0  0  0  0  0  0  0  0  0  0  0  0
    7.1678    1.0929   -1.6864 H   0  0  0  0  0  0  0  0  0  0  0  0
    5.1077    2.1900    1.0313 H   0  0  0  0  0  0  0  0  0  0  0  0
    5.5725    4.0868   -2.5283 H   0  0  0  0  0  0  0  0  0  0  0  0
    8.6229    1.6267   -1.1504 H   0  0  0  0  0  0  0  0  0  0  0  0
    7.2655    2.6725    0.6671 H   0  0  0  0  0  0  0  0  0  0  0  0
    5.8268    1.9454   -0.0071 H   0  0  0  0  0  0  0  0  0  0  0  0
    6.7788   -0.1437    0.3627 H   0  0  0  0  0  0  0  0  0  0  0  0
    7.4370    0.5190   -2.8678 H   0  0  0  0  0  0  0  0  0  0  0  0
    6.9957   -0.5094   -0.2206 H   0  0  0  0  0  0  0  0  0  0  0  0
    5.1103   -0.1359   -2.4902 H   0  0  0  0  0  0  0  0  0  0  0  0
    5.3265    1.5283   -0.1591 H   0  0  0  0  0  0  0  0  0  0  0  0
    5.5103    1.9445   -3.7126 H   0  0  0  0  0  0  0  0  0  0  0  0
    3.3825    2.1971   -1.8008 H   0  0  0  0  0  0  0  0  0  0  0  0
    8.9642    0.0769   -0.5948 H   0  0  0  0  0  0  0  0  0  0  0  0
    8.7527   -1.6569   -0.6405 H   0  0  0  0  0  0  0  0  0  0  0  0
    8.9997   -0.7675   -2.1241 H   0  0  0  0  0  0  0  0  0  0  0  0
    5.3596   -0.3791   -0.0062 H   0  0  0  0  0  0  0  0  0  0  0  0
    6.6166   -1.4292    0.6021 H   0  0  0  0  0  0  0  0  0  0  0  0
    6.8285    0.3046    0.6480 H   0  0  0  0  0  0  0  0  0  0  0  0
    6.8746   -2.5800   -2.5690 H   0  0  0  0  0  0  0  0  0  0  0  0
    5.1892   -2.6413   -0.8228 H   0  0  0  0  0  0  0  0  0  0  0  0
    4.6792   -1.0300   -1.3831 H   0  0  0  0  0  0  0  0  0  0  0  0
    4.4265   -2.0986   -3.5743 H   0  0  0  0  0  0  0  0  0  0  0  0
    4.5778   -3.6210   -2.7308 H   0  0  0  0  0  0  0  0  0  0  0  0
    1.4722   -3.3671   -0.8117 H   0  0  0  0  0  0  0  0  0  0  0  0
    1.8227   -4.3753   -2.1950 H   0  0  0  0  0  0  0  0  0  0  0  0
    3.0072   -4.1944   -0.9233 H   0  0  0  0  0  0  0  0  0  0  0  0
   -0.2990    3.0040   -3.8229 H   0  0  0  0  0  0  0  0  0  0  0  0
    2.1641    1.5893   -4.2323 H   0  0  0  0  0  0  0  0  0  0  0  0
  1  2  1  0  0  0  0
  1 58  1  0  0  0  0
  1 59  1  0  0  0  0
  1 60  1  0  0  0  0
  2  3  1  0  0  0  0
  2  4  1  0  0  0  0
  2 61  1  0  0  0  0
  3 62  1  0  0  0  0
  3 63  1  0  0  0  0
  3 64  1  0  0  0  0
  4  5  2  0  0  0  0
  4  6  1  0  0  0  0
  6  7  1  0  0  0  0
  6 65  1  0  0  0  0
  6 66  1  0  0  0  0
  7  8  1  0  0  0  0
  7 67  1  0  0  0  0
  7 68  1  0  0  0  0
  8  9  1  0  0  0  0
  8 10  1  0  0  0  0
  8 56  1  0  0  0  0
  9 69  1  0  0  0  0
  9 70  1  0  0  0  0
  9 71  1  0  0  0  0
 10 11  1  0  0  0  0
 10 72  1  0  0  0  0
 10 73  1  0  0  0  0
 11 12  1  0  0  0  0
 11 13  1  0  0  0  0
 11 74  1  0  0  0  0
 12 75  1  0  0  0  0
 13 14  1  0  0  0  0
 13 15  1  0  0  0  0
 13 54  1  0  0  0  0
 14 76  1  0  0  0  0
 14 77  1  0  0  0  0
 14 78  1  0  0  0  0
 15 16  1  0  0  0  0
 15 56  1  0  0  0  0
 15 79  1  0  0  0  0
 16 17  2  0  0  0  0
 16 18  1  0  0  0  0
 18 19  1  0  0  0  0
 18 80  1  0  0  0  0
 18 81  1  0  0  0  0
 19 20  1  0  0  0  0
 19 54  1  0  0  0  0
 19 82  1  0  0  0  0
 20 21  1  0  0  0  0
 20 22  1  0  0  0  0
 20 51  1  0  0  0  0
 21 83  1  0  0  0  0
 21 84  1  0  0  0  0
 21 85  1  0  0  0  0
 22 23  1  0  0  0  0
 22 86  1  0  0  0  0
 22 87  1  0  0  0  0
 23 24  1  0  0  0  0
 23 88  1  0  0  0  0
 23 89  1  0  0  0  0
 24 25  1  0  0  0  0
 24 48  1  0  0  0  0
 24 90  1  0  0  0  0
 25 26  1  0  0  0  0
 26 27  1  0  0  0  0
 26 35  1  0  0  0  0
 26 91  1  0  0  0  0
 27 28  1  0  0  0  0
 28 29  1  0  0  0  0
 28 31  1  0  0  0  0
 28 92  1  0  0  0  0
 29 30  1  0  0  0  0
 29 93  1  0  0  0  0
 29 94  1  0  0  0  0
 30 95  1  0  0  0  0
 31 32  1  0  0  0  0
 31 33  1  0  0  0  0
 31 96  1  0  0  0  0
 32 97  1  0  0  0  0
 33 34  1  0  0  0  0
 33 35  1  0  0  0  0
 33 98  1  0  0  0  0
 34 99  1  0  0  0  0
 35 36  1  0  0  0  0
 35100  1  0  0  0  0
 36 37  1  0  0  0  0
 37 38  1  0  0  0  0
 37 46  1  0  0  0  0
 37101  1  0  0  0  0
 38 39  1  0  0  0  0
 39 40  1  0  0  0  0
 39 42  1  0  0  0  0
 39102  1  0  0  0  0
 40 41  1  0  0  0  0
 40103  1  0  0  0  0
 40104  1  0  0  0  0
 41105  1  0  0  0  0
 42 43  1  0  0  0  0
 42 44  1  0  0  0  0
 42106  1  0  0  0  0
 43107  1  0  0  0  0
 44 45  1  0  0  0  0
 44 46  1  0  0  0  0
 44108  1  0  0  0  0
 45109  1  0  0  0  0
 46 47  1  0  0  0  0
 46110  1  0  0  0  0
 47111  1  0  0  0  0
 48 49  1  0  0  0  0
 48 50  1  0  0  0  0
 48 51  1  0  0  0  0
 49112  1  0  0  0  0
 49113  1  0  0  0  0
 49114  1  0  0  0  0
 50115  1  0  0  0  0
 50116  1  0  0  0  0
 50117  1  0  0  0  0
 51 52  1  0  0  0  0
 51118  1  0  0  0  0
 52 53  1  0  0  0  0
 52119  1  0  0  0  0
 52120  1  0  0  0  0
 53 54  1  0  0  0  0
 53121  1  0  0  0  0
 53122  1  0  0  0  0
 54 55  1  0  0  0  0
 55123  1  0  0  0  0
 55124  1  0  0  0  0
 55125  1  0  0  0  0
 56 57  1  0  0  0  0
 56126  1  0  0  0  0
 57127  1  0  0  0  0
M  END
