
 OpenBabel03132514253D

 50 49  0  0  0  0  0  0  0  0999 V2000
    1.0662    0.0738    0.0134 C   0  0  0  0  0  0  0  0  0  0  0  0
    0.5595    1.3745   -0.5881 C   0  0  0  0  0  0  0  0  0  0  0  0
    1.0662    1.5039   -2.0154 C   0  0  0  0  0  0  0  0  0  0  0  0
    0.5595    0.3326   -2.8410 C   0  0  0  0  0  0  0  0  0  0  0  0
   -0.9605    0.3326   -2.8410 C   0  0  0  0  0  0  0  0  0  0  0  0
   -1.4672    1.6333   -3.4426 C   0  0  0  0  0  0  0  0  0  0  0  0
   -2.2493    1.6089   -4.5554 C   0  0  0  0  0  0  0  0  0  0  0  0
   -2.7559    2.9096   -5.1569 C   0  0  0  0  0  0  0  0  0  0  0  0
   -2.2493    3.0390   -6.5842 C   0  0  0  0  0  0  0  0  0  0  0  0
   -3.1333    3.1323   -7.6139 C   0  0  0  0  0  0  0  0  0  0  0  0
   -2.6267    3.2618   -9.0412 C   0  0  0  0  0  0  0  0  0  0  0  0
   -3.1333    2.0905   -9.8668 C   0  0  0  0  0  0  0  0  0  0  0  0
   -3.9154    2.3147  -10.9571 C   0  0  0  0  0  0  0  0  0  0  0  0
   -4.4221    1.1434  -11.7828 C   0  0  0  0  0  0  0  0  0  0  0  0
   -5.9421    1.1434  -11.7828 C   0  0  0  0  0  0  0  0  0  0  0  0
   -6.4488    2.4441  -12.3843 C   0  0  0  0  0  0  0  0  0  0  0  0
   -5.9421    2.5735  -13.8116 C   0  0  0  0  0  0  0  0  0  0  0  0
   -6.4488    1.4022  -14.6372 C   0  0  0  0  0  0  0  0  0  0  0  0
   -7.1795    1.6116  -15.6558 O   0  0  0  0  0  0  0  0  0  0  0  0
   -6.1057    0.0739  -14.2706 O   0  0  0  0  0  0  0  0  0  0  0  0
    0.7095   -0.7508   -0.5678 H   0  0  0  0  0  0  0  0  0  0  0  0
    0.7095   -0.0173    1.0181 H   0  0  0  0  0  0  0  0  0  0  0  0
    2.1362    0.0738    0.0134 H   0  0  0  0  0  0  0  0  0  0  0  0
   -0.5105    1.3745   -0.5881 H   0  0  0  0  0  0  0  0  0  0  0  0
    0.9162    2.1990   -0.0069 H   0  0  0  0  0  0  0  0  0  0  0  0
    0.7095    2.4195   -2.4388 H   0  0  0  0  0  0  0  0  0  0  0  0
    2.1362    1.5039   -2.0154 H   0  0  0  0  0  0  0  0  0  0  0  0
    0.9162    0.4237   -3.8457 H   0  0  0  0  0  0  0  0  0  0  0  0
    0.9162   -0.5831   -2.4176 H   0  0  0  0  0  0  0  0  0  0  0  0
   -1.3172   -0.4920   -3.4223 H   0  0  0  0  0  0  0  0  0  0  0  0
   -1.3172    0.2415   -1.8364 H   0  0  0  0  0  0  0  0  0  0  0  0
   -1.2087    2.5681   -2.9908 H   0  0  0  0  0  0  0  0  0  0  0  0
   -2.5078    0.6740   -5.0072 H   0  0  0  0  0  0  0  0  0  0  0  0
   -3.8259    2.9096   -5.1569 H   0  0  0  0  0  0  0  0  0  0  0  0
   -2.3993    3.7341   -4.5757 H   0  0  0  0  0  0  0  0  0  0  0  0
   -1.1973    3.0566   -6.7789 H   0  0  0  0  0  0  0  0  0  0  0  0
   -4.1853    3.1147   -7.4192 H   0  0  0  0  0  0  0  0  0  0  0  0
   -2.9833    4.1774   -9.4646 H   0  0  0  0  0  0  0  0  0  0  0  0
   -1.5567    3.2618   -9.0412 H   0  0  0  0  0  0  0  0  0  0  0  0
   -2.8748    1.0896   -9.5905 H   0  0  0  0  0  0  0  0  0  0  0  0
   -4.1739    3.3155  -11.2334 H   0  0  0  0  0  0  0  0  0  0  0  0
   -4.0654    1.2345  -12.7875 H   0  0  0  0  0  0  0  0  0  0  0  0
   -4.0654    0.2277  -11.3594 H   0  0  0  0  0  0  0  0  0  0  0  0
   -6.2988    0.3188  -12.3640 H   0  0  0  0  0  0  0  0  0  0  0  0
   -6.2988    1.0523  -10.7781 H   0  0  0  0  0  0  0  0  0  0  0  0
   -7.5188    2.4441  -12.3843 H   0  0  0  0  0  0  0  0  0  0  0  0
   -6.0921    3.2686  -11.8031 H   0  0  0  0  0  0  0  0  0  0  0  0
   -6.2988    3.4891  -14.2350 H   0  0  0  0  0  0  0  0  0  0  0  0
   -4.8721    2.5735  -13.8116 H   0  0  0  0  0  0  0  0  0  0  0  0
   -6.4391   -0.6967  -14.8138 H   0  0  0  0  0  0  0  0  0  0  0  0
  1  2  1  0  0  0  0
  1 21  1  0  0  0  0
  1 22  1  0  0  0  0
  1 23  1  0  0  0  0
  2  3  1  0  0  0  0
  2 24  1  0  0  0  0
  2 25  1  0  0  0  0
  3  4  1  0  0  0  0
  3 26  1  0  0  0  0
  3 27  1  0  0  0  0
  4  5  1  0  0  0  0
  4 28  1  0  0  0  0
  4 29  1  0  0  0  0
  5  6  1  0  0  0  0
  5 30  1  0  0  0  0
  5 31  1  0  0  0  0
  6  7  2  0  0  0  0
  6 32  1  0  0  0  0
  7  8  1  0  0  0  0
  7 33  1  0  0  0  0
  8  9  1  0  0  0  0
  8 34  1  0  0  0  0
  8 35  1  0  0  0  0
  9 10  2  0  0  0  0
  9 36  1  0  0  0  0
 10 11  1  0  0  0  0
 10 37  1  0  0  0  0
 11 12  1  0  0  0  0
 11 38  1  0  0  0  0
 11 39  1  0  0  0  0
 12 13  2  0  0  0  0
 12 40  1  0  0  0  0
 13 14  1  0  0  0  0
 13 41  1  0  0  0  0
 14 15  1  0  0  0  0
 14 42  1  0  0  0  0
 14 43  1  0  0  0  0
 15 16  1  0  0  0  0
 15 44  1  0  0  0  0
 15 45  1  0  0  0  0
 16 17  1  0  0  0  0
 16 46  1  0  0  0  0
 16 47  1  0  0  0  0
 17 18  1  0  0  0  0
 17 48  1  0  0  0  0
 17 49  1  0  0  0  0
 18 19  2  0  0  0  0
 18 20  1  0  0  0  0
 20 50  1  0  0  0  0
M  END
