
 OpenBabel03132514253D

 50 53  0  0  0  0  0  0  0  0999 V2000
    1.0837   -0.0475   -0.0271 C   0  0  0  0  0  0  0  0  0  0  0  0
    0.6104    1.0304    0.7669 O   0  0  0  0  0  0  0  0  0  0  0  0
    0.9534    1.1028    2.1429 C   0  0  0  0  0  0  0  0  0  0  0  0
    2.2384    0.8698    2.5190 C   0  0  0  0  0  0  0  0  0  0  0  0
    2.6240    0.9438    3.8125 C   0  0  0  0  0  0  0  0  0  0  0  0
    1.6857    1.2558    4.7983 C   0  0  0  0  0  0  0  0  0  0  0  0
    1.7253    1.4015    6.1325 N   0  0  0  0  0  0  0  0  0  0  0  0
    0.5145    1.7064    6.5530 C   0  0  0  0  0  0  0  0  0  0  0  0
   -0.3296    1.7653    5.5335 N   0  0  0  0  0  0  0  0  0  0  0  0
   -1.7633    2.0770    5.6245 C   0  0  0  0  0  0  0  0  0  0  0  0
   -2.3074    3.2199    6.1087 C   0  0  0  0  0  0  0  0  0  0  0  0
   -3.6494    3.0733    5.9891 C   0  0  0  0  0  0  0  0  0  0  0  0
   -4.6359    4.0236    6.3635 O   0  0  0  0  0  0  0  0  0  0  0  0
   -4.2458    5.2687    6.9237 C   0  0  0  0  0  0  0  0  0  0  0  0
   -3.4651    5.0255    8.2051 C   0  0  0  0  0  0  0  0  0  0  0  0
   -3.3712    6.0186    5.9322 C   0  0  0  0  0  0  0  0  0  0  0  0
   -3.3825    7.4412    5.9490 C   0  0  0  0  0  0  0  0  0  0  0  0
   -2.9282    8.1471    4.8230 C   0  0  0  0  0  0  0  0  0  0  0  0
   -2.2564    7.5304    3.8957 C   0  0  0  0  0  0  0  0  0  0  0  0
   -1.9754    6.1636    4.0232 C   0  0  0  0  0  0  0  0  0  0  0  0
   -2.6759    5.3916    4.9818 C   0  0  0  0  0  0  0  0  0  0  0  0
   -2.6363    3.8731    4.9286 C   0  0  0  0  0  0  0  0  0  0  0  0
   -3.1317    3.4571    3.7665 F   0  0  0  0  0  0  0  0  0  0  0  0
   -1.3785    3.4579    5.0484 F   0  0  0  0  0  0  0  0  0  0  0  0
   -3.3642    3.3755    5.9244 F   0  0  0  0  0  0  0  0  0  0  0  0
   -3.8678    1.8976    5.4664 C   0  0  0  0  0  0  0  0  0  0  0  0
   -5.2383    1.3181    5.1563 C   0  0  0  0  0  0  0  0  0  0  0  0
   -6.4494    2.0989    5.4471 N   0  0  0  0  0  0  0  0  0  0  0  0
   -5.3372    0.1586    4.6456 O   0  0  0  0  0  0  0  0  0  0  0  0
   -2.7470    1.3039    5.2535 S   0  0  0  0  0  0  0  0  0  0  0  0
    0.3370    1.4950    4.4122 C   0  0  0  0  0  0  0  0  0  0  0  0
   -0.0035    1.4081    3.0460 C   0  0  0  0  0  0  0  0  0  0  0  0
    0.7271    0.0645   -1.0297 H   0  0  0  0  0  0  0  0  0  0  0  0
    0.7271   -0.9718    0.3772 H   0  0  0  0  0  0  0  0  0  0  0  0
    2.1537   -0.0475   -0.0271 H   0  0  0  0  0  0  0  0  0  0  0  0
    2.9634    0.6213    1.7723 H   0  0  0  0  0  0  0  0  0  0  0  0
    3.6444    0.7640    4.0799 H   0  0  0  0  0  0  0  0  0  0  0  0
    0.2499    1.8819    7.5748 H   0  0  0  0  0  0  0  0  0  0  0  0
   -1.7844    4.0652    6.5045 H   0  0  0  0  0  0  0  0  0  0  0  0
   -5.1170    5.8503    7.1418 H   0  0  0  0  0  0  0  0  0  0  0  0
   -2.5939    4.4439    7.9870 H   0  0  0  0  0  0  0  0  0  0  0  0
   -3.1712    5.9638    8.6272 H   0  0  0  0  0  0  0  0  0  0  0  0
   -4.0808    4.4976    8.9031 H   0  0  0  0  0  0  0  0  0  0  0  0
   -3.7339    7.9683    6.8113 H   0  0  0  0  0  0  0  0  0  0  0  0
   -3.1349    9.1927    4.7280 H   0  0  0  0  0  0  0  0  0  0  0  0
   -1.9177    8.0674    3.0344 H   0  0  0  0  0  0  0  0  0  0  0  0
   -1.2360    5.7057    3.3999 H   0  0  0  0  0  0  0  0  0  0  0  0
   -7.3691    1.7101    5.2391 H   0  0  0  0  0  0  0  0  0  0  0  0
   -6.3700    3.0295    5.8570 H   0  0  0  0  0  0  0  0  0  0  0  0
   -1.0102    1.5824    2.7282 H   0  0  0  0  0  0  0  0  0  0  0  0
  1  2  1  0  0  0  0
  1 33  1  0  0  0  0
  1 34  1  0  0  0  0
  1 35  1  0  0  0  0
  2  3  1  0  0  0  0
  3  4  1  0  0  0  0
  3 32  2  0  0  0  0
  4  5  2  0  0  0  0
  4 36  1  0  0  0  0
  5  6  1  0  0  0  0
  5 37  1  0  0  0  0
  6  7  1  0  0  0  0
  6 31  2  0  0  0  0
  7  8  2  0  0  0  0
  8  9  1  0  0  0  0
  8 38  1  0  0  0  0
  9 10  1  0  0  0  0
  9 31  1  0  0  0  0
 10 11  2  0  0  0  0
 10 30  1  0  0  0  0
 11 12  1  0  0  0  0
 11 39  1  0  0  0  0
 12 13  1  0  0  0  0
 12 26  2  0  0  0  0
 13 14  1  0  0  0  0
 14 15  1  0  0  0  0
 14 16  1  0  0  0  0
 14 40  1  0  0  0  0
 15 41  1  0  0  0  0
 15 42  1  0  0  0  0
 15 43  1  0  0  0  0
 16 17  1  0  0  0  0
 16 21  2  0  0  0  0
 17 18  2  0  0  0  0
 17 44  1  0  0  0  0
 18 19  1  0  0  0  0
 18 45  1  0  0  0  0
 19 20  2  0  0  0  0
 19 46  1  0  0  0  0
 20 21  1  0  0  0  0
 20 47  1  0  0  0  0
 21 22  1  0  0  0  0
 22 23  1  0  0  0  0
 22 24  1  0  0  0  0
 22 25  1  0  0  0  0
 26 27  1  0  0  0  0
 26 30  1  0  0  0  0
 27 28  1  0  0  0  0
 27 29  2  0  0  0  0
 28 48  1  0  0  0  0
 28 49  1  0  0  0  0
 31 32  1  0  0  0  0
 32 50  1  0  0  0  0
M  END
