
 OpenBabel03132514253D

 55 58  0  0  0  0  0  0  0  0999 V2000
    1.0418    0.0871   -0.0258 C   0  0  0  0  0  0  0  0  0  0  0  0
    0.5352   -0.1142   -1.4446 C   0  0  0  0  0  0  0  0  0  0  0  0
    1.0251   -1.3998   -1.9622 N   0  0  0  0  0  0  0  0  0  0  0  0
    1.8986   -1.6335   -2.9204 C   0  0  0  0  0  0  0  0  0  0  0  0
    2.6949   -0.5619   -3.6470 C   0  0  0  0  0  0  0  0  0  0  0  0
    2.7733   -0.3554   -5.4172 N   0  0  0  0  0  0  0  0  0  0  0  0
    3.9524    0.9140   -5.4802 O   0  0  0  0  0  0  0  0  0  0  0  0
    4.2426    1.1340   -4.1695 N   0  0  0  0  0  0  0  0  0  0  0  0
    3.6040    0.3913   -3.2085 C   0  0  0  0  0  0  0  0  0  0  0  0
    3.8708    0.5960   -1.7774 N   0  0  0  0  0  0  0  0  0  0  0  0
    1.9858   -2.9333   -3.1619 N   0  0  0  0  0  0  0  0  0  0  0  0
    1.1527   -3.5754   -2.3445 C   0  0  0  0  0  0  0  0  0  0  0  0
    0.8093   -4.9269   -2.1311 C   0  0  0  0  0  0  0  0  0  0  0  0
    1.4628   -6.0239   -2.9556 C   0  0  0  0  0  0  0  0  0  0  0  0
    2.0233   -6.9650   -3.6629 C   0  0  0  0  0  0  0  0  0  0  0  0
    2.6768   -8.0620   -4.4874 C   0  0  0  0  0  0  0  0  0  0  0  0
    2.3135   -9.4182   -3.9050 C   0  0  0  0  0  0  0  0  0  0  0  0
    2.1841   -7.9787   -5.9229 C   0  0  0  0  0  0  0  0  0  0  0  0
    4.0870   -7.8979   -4.4607 O   0  0  0  0  0  0  0  0  0  0  0  0
   -0.1058   -5.2368   -1.1871 N   0  0  0  0  0  0  0  0  0  0  0  0
   -0.7109   -4.2761   -0.4402 C   0  0  0  0  0  0  0  0  0  0  0  0
   -0.4182   -2.9658   -0.5967 C   0  0  0  0  0  0  0  0  0  0  0  0
   -1.0621   -1.9904    0.2097 O   0  0  0  0  0  0  0  0  0  0  0  0
   -2.0155   -2.3907    1.1829 C   0  0  0  0  0  0  0  0  0  0  0  0
   -3.1624   -3.1174    0.4996 C   0  0  0  0  0  0  0  0  0  0  0  0
   -4.4974   -2.6213    0.9818 C   0  0  0  0  0  0  0  0  0  0  0  0
   -5.4709   -3.7585    0.5482 C   0  0  0  0  0  0  0  0  0  0  0  0
   -4.6221   -5.0240    0.6954 C   0  0  0  0  0  0  0  0  0  0  0  0
   -3.2044   -4.5377    0.8939 N   0  0  0  0  0  0  0  0  0  0  0  0
    0.5196   -2.5752   -1.5545 C   0  0  0  0  0  0  0  0  0  0  0  0
    0.6852   -0.7071    0.5963 H   0  0  0  0  0  0  0  0  0  0  0  0
    0.6852    1.0229    0.3509 H   0  0  0  0  0  0  0  0  0  0  0  0
    2.1118    0.0871   -0.0258 H   0  0  0  0  0  0  0  0  0  0  0  0
   -0.5348   -0.1142   -1.4446 H   0  0  0  0  0  0  0  0  0  0  0  0
    0.8918    0.6800   -2.0667 H   0  0  0  0  0  0  0  0  0  0  0  0
    4.5434    1.3028   -1.4800 H   0  0  0  0  0  0  0  0  0  0  0  0
    3.3833    0.0312   -1.0819 H   0  0  0  0  0  0  0  0  0  0  0  0
    1.2509   -9.5419   -3.9251 H   0  0  0  0  0  0  0  0  0  0  0  0
    2.7735  -10.1905   -4.4854 H   0  0  0  0  0  0  0  0  0  0  0  0
    2.6604   -9.4769   -2.8945 H   0  0  0  0  0  0  0  0  0  0  0  0
    2.4398   -7.0240   -6.3329 H   0  0  0  0  0  0  0  0  0  0  0  0
    2.6441   -8.7509   -6.5033 H   0  0  0  0  0  0  0  0  0  0  0  0
    1.1214   -8.1024   -5.9430 H   0  0  0  0  0  0  0  0  0  0  0  0
    4.5170   -8.6196   -5.0032 H   0  0  0  0  0  0  0  0  0  0  0  0
   -1.4376   -4.5644    0.2905 H   0  0  0  0  0  0  0  0  0  0  0  0
   -1.5500   -3.0446    1.8904 H   0  0  0  0  0  0  0  0  0  0  0  0
   -2.3921   -1.5268    1.6897 H   0  0  0  0  0  0  0  0  0  0  0  0
   -2.9993   -2.9611   -0.5462 H   0  0  0  0  0  0  0  0  0  0  0  0
   -4.5198   -2.4250    2.0334 H   0  0  0  0  0  0  0  0  0  0  0  0
   -4.7555   -1.6946    0.5133 H   0  0  0  0  0  0  0  0  0  0  0  0
   -6.3683   -3.7861    1.1304 H   0  0  0  0  0  0  0  0  0  0  0  0
   -5.7885   -3.6256   -0.4649 H   0  0  0  0  0  0  0  0  0  0  0  0
   -4.9521   -5.6308    1.5126 H   0  0  0  0  0  0  0  0  0  0  0  0
   -4.6912   -5.6255   -0.1869 H   0  0  0  0  0  0  0  0  0  0  0  0
   -2.9370   -4.6351    1.8734 H   0  0  0  0  0  0  0  0  0  0  0  0
  1  2  1  0  0  0  0
  1 31  1  0  0  0  0
  1 32  1  0  0  0  0
  1 33  1  0  0  0  0
  2  3  1  0  0  0  0
  2 34  1  0  0  0  0
  2 35  1  0  0  0  0
  3  4  1  0  0  0  0
  3 30  1  0  0  0  0
  4  5  1  0  0  0  0
  4 11  2  0  0  0  0
  5  6  2  0  0  0  0
  5  9  1  0  0  0  0
  6  7  1  0  0  0  0
  7  8  1  0  0  0  0
  8  9  2  0  0  0  0
  9 10  1  0  0  0  0
 10 36  1  0  0  0  0
 10 37  1  0  0  0  0
 11 12  1  0  0  0  0
 12 13  1  0  0  0  0
 12 30  2  0  0  0  0
 13 14  1  0  0  0  0
 13 20  2  0  0  0  0
 14 15  3  0  0  0  0
 15 16  1  0  0  0  0
 16 17  1  0  0  0  0
 16 18  1  0  0  0  0
 16 19  1  0  0  0  0
 17 38  1  0  0  0  0
 17 39  1  0  0  0  0
 17 40  1  0  0  0  0
 18 41  1  0  0  0  0
 18 42  1  0  0  0  0
 18 43  1  0  0  0  0
 19 44  1  0  0  0  0
 20 21  1  0  0  0  0
 21 22  2  0  0  0  0
 21 45  1  0  0  0  0
 22 23  1  0  0  0  0
 22 30  1  0  0  0  0
 23 24  1  0  0  0  0
 24 25  1  0  0  0  0
 24 46  1  0  0  0  0
 24 47  1  0  0  0  0
 25 26  1  0  0  0  0
 25 29  1  0  0  0  0
 25 48  1  0  0  0  0
 26 27  1  0  0  0  0
 26 49  1  0  0  0  0
 26 50  1  0  0  0  0
 27 28  1  0  0  0  0
 27 51  1  0  0  0  0
 27 52  1  0  0  0  0
 28 29  1  0  0  0  0
 28 53  1  0  0  0  0
 28 54  1  0  0  0  0
 29 55  1  0  0  0  0
M  END
