
 OpenBabel03132514253D

 37 39  0  0  0  0  0  0  0  0999 V2000
    1.0774    0.0001    0.0633 C   0  0  0  0  0  0  0  0  0  0  0  0
    0.5707    1.1966    0.8521 C   0  0  0  0  0  0  0  0  0  0  0  0
   -0.1764    1.0884    2.0035 C   0  0  0  0  0  0  0  0  0  0  0  0
   -0.4859    2.2215    2.7562 C   0  0  0  0  0  0  0  0  0  0  0  0
   -1.4661    2.0629    4.2336 Cl  0  0  0  0  0  0  0  0  0  0  0  0
   -0.0355    3.4653    2.3605 C   0  0  0  0  0  0  0  0  0  0  0  0
    0.7281    3.5855    1.1956 C   0  0  0  0  0  0  0  0  0  0  0  0
    1.3485    4.7143    0.5039 C   0  0  0  0  0  0  0  0  0  0  0  0
    1.2995    6.1211    0.9273 N   0  0  0  0  0  0  0  0  0  0  0  0
    0.6739    6.4450    1.9851 N   0  0  0  0  0  0  0  0  0  0  0  0
    0.6248    7.8518    2.4084 C   0  0  0  0  0  0  0  0  0  0  0  0
    0.8819    8.1977    3.7200 C   0  0  0  0  0  0  0  0  0  0  0  0
    0.8767    9.4661    4.0987 C   0  0  0  0  0  0  0  0  0  0  0  0
    0.6332   10.4440    3.2423 C   0  0  0  0  0  0  0  0  0  0  0  0
    0.6478   12.1603    3.8169 S   0  0  0  0  0  0  0  0  0  0  0  0
   -0.5709   12.3701    5.0692 N   0  0  0  0  0  0  0  0  0  0  0  0
    2.0280   12.4958    4.3869 O   0  0  0  0  0  0  0  0  0  0  0  0
    0.3397   13.0937    2.6437 O   0  0  0  0  0  0  0  0  0  0  0  0
    0.3679   10.1709    1.9143 C   0  0  0  0  0  0  0  0  0  0  0  0
    0.3593    8.8520    1.4842 C   0  0  0  0  0  0  0  0  0  0  0  0
    1.9516    4.2532   -0.5525 C   0  0  0  0  0  0  0  0  0  0  0  0
    2.6733    5.0433   -1.4860 O   0  0  0  0  0  0  0  0  0  0  0  0
    1.7865    2.8674   -0.6361 N   0  0  0  0  0  0  0  0  0  0  0  0
    1.0320    2.4409    0.4377 C   0  0  0  0  0  0  0  0  0  0  0  0
    0.7207    0.0598   -0.9437 H   0  0  0  0  0  0  0  0  0  0  0  0
    0.7207   -0.9019    0.5152 H   0  0  0  0  0  0  0  0  0  0  0  0
    2.1474    0.0001    0.0633 H   0  0  0  0  0  0  0  0  0  0  0  0
   -0.5223    0.1278    2.3235 H   0  0  0  0  0  0  0  0  0  0  0  0
   -0.2696    4.3323    2.9422 H   0  0  0  0  0  0  0  0  0  0  0  0
    1.0877    7.4319    4.4384 H   0  0  0  0  0  0  0  0  0  0  0  0
    1.0743    9.7060    5.1226 H   0  0  0  0  0  0  0  0  0  0  0  0
   -0.5627   13.3374    5.3930 H   0  0  0  0  0  0  0  0  0  0  0  0
   -1.4908   12.1466    4.6893 H   0  0  0  0  0  0  0  0  0  0  0  0
    0.1715   10.9665    1.2263 H   0  0  0  0  0  0  0  0  0  0  0  0
    0.1525    8.6114    0.4624 H   0  0  0  0  0  0  0  0  0  0  0  0
    2.7450    6.0320   -1.3543 H   0  0  0  0  0  0  0  0  0  0  0  0
    2.1627    2.2689   -1.3714 H   0  0  0  0  0  0  0  0  0  0  0  0
  1  2  1  0  0  0  0
  1 25  1  0  0  0  0
  1 26  1  0  0  0  0
  1 27  1  0  0  0  0
  2  3  1  0  0  0  0
  2 24  2  0  0  0  0
  3  4  2  0  0  0  0
  3 28  1  0  0  0  0
  4  5  1  0  0  0  0
  4  6  1  0  0  0  0
  6  7  2  0  0  0  0
  6 29  1  0  0  0  0
  7  8  1  0  0  0  0
  7 24  1  0  0  0  0
  8  9  1  0  0  0  0
  8 21  2  0  0  0  0
  9 10  2  0  0  0  0
 10 11  1  0  0  0  0
 11 12  1  0  0  0  0
 11 20  2  0  0  0  0
 12 13  2  0  0  0  0
 12 30  1  0  0  0  0
 13 14  1  0  0  0  0
 13 31  1  0  0  0  0
 14 15  1  0  0  0  0
 14 19  2  0  0  0  0
 15 16  1  0  0  0  0
 15 17  2  0  0  0  0
 15 18  2  0  0  0  0
 16 32  1  0  0  0  0
 16 33  1  0  0  0  0
 19 20  1  0  0  0  0
 19 34  1  0  0  0  0
 20 35  1  0  0  0  0
 21 22  1  0  0  0  0
 21 23  1  0  0  0  0
 22 36  1  0  0  0  0
 23 24  1  0  0  0  0
 23 37  1  0  0  0  0
M  END
