
 OpenBabel03132514253D

 34 36  0  0  0  0  0  0  0  0999 V2000
    0.9678   -0.0222    0.0920 N   0  0  0  0  0  0  0  0  0  0  0  0
    0.3811   -1.6268    0.5146 S   0  0  0  0  0  0  0  0  0  0  0  0
    0.8912   -2.0063    1.9067 O   0  0  0  0  0  0  0  0  0  0  0  0
   -1.1494   -1.6268    0.5146 O   0  0  0  0  0  0  0  0  0  0  0  0
    0.9844   -2.8283   -0.6972 C   0  0  0  0  0  0  0  0  0  0  0  0
    0.4024   -4.0817   -0.6034 C   0  0  0  0  0  0  0  0  0  0  0  0
    0.9831   -5.0488   -1.4576 C   0  0  0  0  0  0  0  0  0  0  0  0
    1.7404   -4.7672   -2.5022 C   0  0  0  0  0  0  0  0  0  0  0  0
    2.0416   -5.7705   -3.5335 N   0  0  0  0  0  0  0  0  0  0  0  0
    2.7746   -5.4624   -4.5249 N   0  0  0  0  0  0  0  0  0  0  0  0
    3.0758   -6.4658   -5.5562 C   0  0  0  0  0  0  0  0  0  0  0  0
    3.9064   -6.1166   -6.6797 C   0  0  0  0  0  0  0  0  0  0  0  0
    4.4345   -4.8032   -6.7913 O   0  0  0  0  0  0  0  0  0  0  0  0
    4.1918   -7.0673   -7.6568 N   0  0  0  0  0  0  0  0  0  0  0  0
    3.6451   -8.4269   -7.5413 C   0  0  0  0  0  0  0  0  0  0  0  0
    4.4773   -9.5084   -7.7788 C   0  0  0  0  0  0  0  0  0  0  0  0
    3.7923  -10.7380   -7.9237 C   0  0  0  0  0  0  0  0  0  0  0  0
    2.5515  -10.9553   -7.5273 C   0  0  0  0  0  0  0  0  0  0  0  0
    1.8910  -12.6009   -7.3723 Cl  0  0  0  0  0  0  0  0  0  0  0  0
    1.8014   -9.8482   -7.2423 C   0  0  0  0  0  0  0  0  0  0  0  0
    2.3709   -8.5981   -7.2095 C   0  0  0  0  0  0  0  0  0  0  0  0
    2.2292   -3.4923   -2.5729 C   0  0  0  0  0  0  0  0  0  0  0  0
    1.8089   -2.5245   -1.6928 C   0  0  0  0  0  0  0  0  0  0  0  0
    0.6278    0.6549    0.7749 H   0  0  0  0  0  0  0  0  0  0  0  0
    1.9878   -0.0222    0.0920 H   0  0  0  0  0  0  0  0  0  0  0  0
   -0.4123   -4.2989    0.0554 H   0  0  0  0  0  0  0  0  0  0  0  0
    0.7955   -6.0800   -1.2422 H   0  0  0  0  0  0  0  0  0  0  0  0
    4.2296   -4.1206   -6.0897 H   0  0  0  0  0  0  0  0  0  0  0  0
    4.7801   -6.8200   -8.4526 H   0  0  0  0  0  0  0  0  0  0  0  0
    5.5417   -9.4220   -7.8464 H   0  0  0  0  0  0  0  0  0  0  0  0
    4.3160  -11.5481   -8.3868 H   0  0  0  0  0  0  0  0  0  0  0  0
    0.7560   -9.9568   -7.0419 H   0  0  0  0  0  0  0  0  0  0  0  0
    2.9495   -3.2446   -3.3244 H   0  0  0  0  0  0  0  0  0  0  0  0
    2.1491   -1.5168   -1.8107 H   0  0  0  0  0  0  0  0  0  0  0  0
  1  2  1  0  0  0  0
  1 24  1  0  0  0  0
  1 25  1  0  0  0  0
  2  3  2  0  0  0  0
  2  4  2  0  0  0  0
  2  5  1  0  0  0  0
  5  6  1  0  0  0  0
  5 23  2  0  0  0  0
  6  7  2  0  0  0  0
  6 26  1  0  0  0  0
  7  8  1  0  0  0  0
  7 27  1  0  0  0  0
  8  9  1  0  0  0  0
  8 22  2  0  0  0  0
  9 10  2  0  0  0  0
 10 11  1  0  0  0  0
 11 12  2  0  0  0  0
 11 21  1  0  0  0  0
 12 13  1  0  0  0  0
 12 14  1  0  0  0  0
 13 28  1  0  0  0  0
 14 15  1  0  0  0  0
 14 29  1  0  0  0  0
 15 16  1  0  0  0  0
 15 21  2  0  0  0  0
 16 17  2  0  0  0  0
 16 30  1  0  0  0  0
 17 18  1  0  0  0  0
 17 31  1  0  0  0  0
 18 19  1  0  0  0  0
 18 20  2  0  0  0  0
 20 21  1  0  0  0  0
 20 32  1  0  0  0  0
 22 23  1  0  0  0  0
 22 33  1  0  0  0  0
 23 34  1  0  0  0  0
M  END
