
 OpenBabel03132514253D

 52 56  0  0  0  0  0  0  0  0999 V2000
    1.0817    0.0469   -0.0337 C   0  0  0  0  0  0  0  0  0  0  0  0
    0.6083   -1.0807    0.6880 O   0  0  0  0  0  0  0  0  0  0  0  0
    0.9514   -2.3913    0.2623 C   0  0  0  0  0  0  0  0  0  0  0  0
    0.0579   -3.4260    0.2714 C   0  0  0  0  0  0  0  0  0  0  0  0
    0.4710   -4.7248   -0.1008 C   0  0  0  0  0  0  0  0  0  0  0  0
   -0.4394   -5.7508   -0.1185 N   0  0  0  0  0  0  0  0  0  0  0  0
    0.0120   -6.9235   -0.4691 C   0  0  0  0  0  0  0  0  0  0  0  0
    1.2998   -7.2414   -0.8060 N   0  0  0  0  0  0  0  0  0  0  0  0
    2.1838   -6.2734   -0.7796 C   0  0  0  0  0  0  0  0  0  0  0  0
    3.5839   -6.5758   -1.1098 N   0  0  0  0  0  0  0  0  0  0  0  0
    3.9760   -7.9478   -1.4630 C   0  0  0  0  0  0  0  0  0  0  0  0
    3.4305   -8.6251   -2.5538 C   0  0  0  0  0  0  0  0  0  0  0  0
    3.7956   -9.9304   -2.8170 C   0  0  0  0  0  0  0  0  0  0  0  0
    4.7115  -10.5742   -1.9795 C   0  0  0  0  0  0  0  0  0  0  0  0
    5.2535   -9.8886   -0.8781 C   0  0  0  0  0  0  0  0  0  0  0  0
    6.1123  -10.7673   -0.2500 C   0  0  0  0  0  0  0  0  0  0  0  0
    6.1078  -11.9807   -0.9446 N   0  0  0  0  0  0  0  0  0  0  0  0
    5.3019  -11.9117   -1.9635 N   0  0  0  0  0  0  0  0  0  0  0  0
    5.0325  -12.9879   -2.9279 C   0  0  0  0  0  0  0  0  0  0  0  0
    6.3267  -13.3840   -3.6196 C   0  0  0  0  0  0  0  0  0  0  0  0
    7.4342  -13.8769   -2.8748 C   0  0  0  0  0  0  0  0  0  0  0  0
    8.7005  -13.9341   -3.4796 C   0  0  0  0  0  0  0  0  0  0  0  0
    8.8124  -13.8036   -4.7688 C   0  0  0  0  0  0  0  0  0  0  0  0
    7.6696  -13.6163   -5.5577 C   0  0  0  0  0  0  0  0  0  0  0  0
    6.4457  -13.2573   -4.9423 C   0  0  0  0  0  0  0  0  0  0  0  0
    4.8748   -8.5744   -0.6292 C   0  0  0  0  0  0  0  0  0  0  0  0
    1.8261   -4.9375   -0.4403 C   0  0  0  0  0  0  0  0  0  0  0  0
    2.7342   -3.8544   -0.4281 C   0  0  0  0  0  0  0  0  0  0  0  0
    2.2979   -2.6054   -0.0893 C   0  0  0  0  0  0  0  0  0  0  0  0
    3.2082   -1.5156   -0.0916 O   0  0  0  0  0  0  0  0  0  0  0  0
    2.7596   -0.2150    0.2599 C   0  0  0  0  0  0  0  0  0  0  0  0
    0.7250    0.9427    0.4303 H   0  0  0  0  0  0  0  0  0  0  0  0
    0.7250    0.0008   -1.0414 H   0  0  0  0  0  0  0  0  0  0  0  0
    2.1517    0.0469   -0.0337 H   0  0  0  0  0  0  0  0  0  0  0  0
   -0.9573   -3.2516    0.5612 H   0  0  0  0  0  0  0  0  0  0  0  0
   -0.7003   -7.7215   -0.4961 H   0  0  0  0  0  0  0  0  0  0  0  0
    4.2834   -5.8336   -1.0937 H   0  0  0  0  0  0  0  0  0  0  0  0
    2.7258   -8.1308   -3.1894 H   0  0  0  0  0  0  0  0  0  0  0  0
    3.3801  -10.4463   -3.6573 H   0  0  0  0  0  0  0  0  0  0  0  0
    6.6882  -10.5546    0.6264 H   0  0  0  0  0  0  0  0  0  0  0  0
    4.6292  -13.8350   -2.4136 H   0  0  0  0  0  0  0  0  0  0  0  0
    4.3287  -12.6452   -3.6573 H   0  0  0  0  0  0  0  0  0  0  0  0
    7.3037  -14.2009   -1.8635 H   0  0  0  0  0  0  0  0  0  0  0  0
    9.5735  -14.0852   -2.8796 H   0  0  0  0  0  0  0  0  0  0  0  0
    9.7784  -13.8393   -5.2276 H   0  0  0  0  0  0  0  0  0  0  0  0
    7.7213  -13.7439   -6.6188 H   0  0  0  0  0  0  0  0  0  0  0  0
    5.6295  -12.8902   -5.5288 H   0  0  0  0  0  0  0  0  0  0  0  0
    5.2817   -8.0499    0.2100 H   0  0  0  0  0  0  0  0  0  0  0  0
    3.7610   -4.0127   -0.6838 H   0  0  0  0  0  0  0  0  0  0  0  0
    1.9883    0.0910   -0.4157 H   0  0  0  0  0  0  0  0  0  0  0  0
    2.3747   -0.2282    1.2582 H   0  0  0  0  0  0  0  0  0  0  0  0
    3.5777    0.4723    0.2022 H   0  0  0  0  0  0  0  0  0  0  0  0
  1  2  1  0  0  0  0
  1 32  1  0  0  0  0
  1 33  1  0  0  0  0
  1 34  1  0  0  0  0
  2  3  1  0  0  0  0
  3  4  1  0  0  0  0
  3 29  2  0  0  0  0
  4  5  2  0  0  0  0
  4 35  1  0  0  0  0
  5  6  1  0  0  0  0
  5 27  1  0  0  0  0
  6  7  2  0  0  0  0
  7  8  1  0  0  0  0
  7 36  1  0  0  0  0
  8  9  2  0  0  0  0
  9 10  1  0  0  0  0
  9 27  1  0  0  0  0
 10 11  1  0  0  0  0
 10 37  1  0  0  0  0
 11 12  1  0  0  0  0
 11 26  2  0  0  0  0
 12 13  2  0  0  0  0
 12 38  1  0  0  0  0
 13 14  1  0  0  0  0
 13 39  1  0  0  0  0
 14 15  2  0  0  0  0
 14 18  1  0  0  0  0
 15 16  1  0  0  0  0
 15 26  1  0  0  0  0
 16 17  2  0  0  0  0
 16 40  1  0  0  0  0
 17 18  1  0  0  0  0
 18 19  1  0  0  0  0
 19 20  1  0  0  0  0
 19 41  1  0  0  0  0
 19 42  1  0  0  0  0
 20 21  1  0  0  0  0
 20 25  2  0  0  0  0
 21 22  2  0  0  0  0
 21 43  1  0  0  0  0
 22 23  1  0  0  0  0
 22 44  1  0  0  0  0
 23 24  2  0  0  0  0
 23 45  1  0  0  0  0
 24 25  1  0  0  0  0
 24 46  1  0  0  0  0
 25 47  1  0  0  0  0
 26 48  1  0  0  0  0
 27 28  2  0  0  0  0
 28 29  1  0  0  0  0
 28 49  1  0  0  0  0
 29 30  1  0  0  0  0
 30 31  1  0  0  0  0
 31 50  1  0  0  0  0
 31 51  1  0  0  0  0
 31 52  1  0  0  0  0
M  END
