
 OpenBabel03132514253D

 66 70  0  0  0  0  0  0  0  0999 V2000
    0.9801   -0.0579   -0.0791 C   0  0  0  0  0  0  0  0  0  0  0  0
    0.3768    1.5959    0.3416 S   0  0  0  0  0  0  0  0  0  0  0  0
    0.8869    2.6032   -0.6916 O   0  0  0  0  0  0  0  0  0  0  0  0
   -1.1537    1.5959    0.3416 O   0  0  0  0  0  0  0  0  0  0  0  0
    0.9801    2.0585    1.9842 C   0  0  0  0  0  0  0  0  0  0  0  0
    0.4734    1.0581    3.0103 C   0  0  0  0  0  0  0  0  0  0  0  0
    0.9634   -0.2850    2.6687 N   0  0  0  0  0  0  0  0  0  0  0  0
    0.4734   -1.2525    3.6611 C   0  0  0  0  0  0  0  0  0  0  0  0
   -1.0466   -1.2525    3.6611 C   0  0  0  0  0  0  0  0  0  0  0  0
   -1.8608   -0.1876    3.6585 C   0  0  0  0  0  0  0  0  0  0  0  0
   -3.1719   -0.5337    3.6738 O   0  0  0  0  0  0  0  0  0  0  0  0
   -3.1795   -1.9077    3.6652 C   0  0  0  0  0  0  0  0  0  0  0  0
   -4.4292   -2.7729    3.6583 C   0  0  0  0  0  0  0  0  0  0  0  0
   -4.6578   -3.6801    4.7107 C   0  0  0  0  0  0  0  0  0  0  0  0
   -5.7751   -4.4678    4.7247 C   0  0  0  0  0  0  0  0  0  0  0  0
   -6.7331   -4.3607    3.6918 C   0  0  0  0  0  0  0  0  0  0  0  0
   -7.8662   -5.1329    3.7302 N   0  0  0  0  0  0  0  0  0  0  0  0
   -8.7057   -4.9842    2.7427 C   0  0  0  0  0  0  0  0  0  0  0  0
   -8.5683   -4.1512    1.6655 N   0  0  0  0  0  0  0  0  0  0  0  0
   -7.4832   -3.4175    1.6085 C   0  0  0  0  0  0  0  0  0  0  0  0
   -7.2829   -2.5273    0.4559 N   0  0  0  0  0  0  0  0  0  0  0  0
   -8.2917   -2.4688   -0.6117 C   0  0  0  0  0  0  0  0  0  0  0  0
   -7.9309   -2.8036   -1.9064 C   0  0  0  0  0  0  0  0  0  0  0  0
   -8.8873   -2.4345   -2.8817 C   0  0  0  0  0  0  0  0  0  0  0  0
  -10.1477   -2.1392   -2.6205 C   0  0  0  0  0  0  0  0  0  0  0  0
  -11.1316   -2.0881   -3.6432 O   0  0  0  0  0  0  0  0  0  0  0  0
  -12.4762   -1.7664   -3.3193 C   0  0  0  0  0  0  0  0  0  0  0  0
  -13.0200   -2.7915   -2.3376 C   0  0  0  0  0  0  0  0  0  0  0  0
  -13.4991   -2.4106   -1.0950 C   0  0  0  0  0  0  0  0  0  0  0  0
  -13.5125   -3.4553   -0.1409 C   0  0  0  0  0  0  0  0  0  0  0  0
  -13.4390   -4.7404   -0.4362 C   0  0  0  0  0  0  0  0  0  0  0  0
  -13.0246   -5.0508   -1.7017 C   0  0  0  0  0  0  0  0  0  0  0  0
  -12.8628   -4.0720   -2.6523 C   0  0  0  0  0  0  0  0  0  0  0  0
  -10.4544   -1.8854   -1.3125 C   0  0  0  0  0  0  0  0  0  0  0  0
   -9.5319   -2.0971   -0.3165 C   0  0  0  0  0  0  0  0  0  0  0  0
   -6.4932   -3.4583    2.6312 C   0  0  0  0  0  0  0  0  0  0  0  0
   -5.3232   -2.6651    2.6315 C   0  0  0  0  0  0  0  0  0  0  0  0
   -1.9071   -2.3780    3.6638 C   0  0  0  0  0  0  0  0  0  0  0  0
    0.6234   -0.3314   -1.0501 H   0  0  0  0  0  0  0  0  0  0  0  0
    0.6234   -0.7621    0.6433 H   0  0  0  0  0  0  0  0  0  0  0  0
    2.0501   -0.0579   -0.0791 H   0  0  0  0  0  0  0  0  0  0  0  0
    2.0501    2.0585    1.9842 H   0  0  0  0  0  0  0  0  0  0  0  0
    0.6234    3.0362    2.2329 H   0  0  0  0  0  0  0  0  0  0  0  0
    0.8301    1.3316    3.9814 H   0  0  0  0  0  0  0  0  0  0  0  0
   -0.5966    1.0581    3.0103 H   0  0  0  0  0  0  0  0  0  0  0  0
    0.6234   -0.5457    1.7430 H   0  0  0  0  0  0  0  0  0  0  0  0
    0.8301   -2.2302    3.4124 H   0  0  0  0  0  0  0  0  0  0  0  0
    0.8301   -0.9791    4.6321 H   0  0  0  0  0  0  0  0  0  0  0  0
   -1.5142    0.8246    3.6458 H   0  0  0  0  0  0  0  0  0  0  0  0
   -3.9488   -3.7538    5.5087 H   0  0  0  0  0  0  0  0  0  0  0  0
   -5.9246   -5.1674    5.5204 H   0  0  0  0  0  0  0  0  0  0  0  0
   -9.5961   -5.5765    2.7787 H   0  0  0  0  0  0  0  0  0  0  0  0
   -6.4439   -1.9502    0.3969 H   0  0  0  0  0  0  0  0  0  0  0  0
   -7.0123   -3.2967   -2.1472 H   0  0  0  0  0  0  0  0  0  0  0  0
   -8.5671   -2.3917   -3.9017 H   0  0  0  0  0  0  0  0  0  0  0  0
  -12.5133   -0.7933   -2.8760 H   0  0  0  0  0  0  0  0  0  0  0  0
  -13.0695   -1.7756   -4.2098 H   0  0  0  0  0  0  0  0  0  0  0  0
  -13.8291   -1.4165   -0.8765 H   0  0  0  0  0  0  0  0  0  0  0  0
  -13.5874   -3.1854    0.8918 H   0  0  0  0  0  0  0  0  0  0  0  0
  -13.6904   -5.4979    0.2764 H   0  0  0  0  0  0  0  0  0  0  0  0
  -12.8233   -6.0706   -1.9553 H   0  0  0  0  0  0  0  0  0  0  0  0
  -12.6077   -4.3439   -3.6552 H   0  0  0  0  0  0  0  0  0  0  0  0
  -11.4268   -1.5167   -1.0608 H   0  0  0  0  0  0  0  0  0  0  0  0
   -9.8153   -1.9611    0.7063 H   0  0  0  0  0  0  0  0  0  0  0  0
   -5.1384   -1.9818    1.8292 H   0  0  0  0  0  0  0  0  0  0  0  0
   -1.6094   -3.4058    3.6645 H   0  0  0  0  0  0  0  0  0  0  0  0
  1  2  1  0  0  0  0
  1 39  1  0  0  0  0
  1 40  1  0  0  0  0
  1 41  1  0  0  0  0
  2  3  2  0  0  0  0
  2  4  2  0  0  0  0
  2  5  1  0  0  0  0
  5  6  1  0  0  0  0
  5 42  1  0  0  0  0
  5 43  1  0  0  0  0
  6  7  1  0  0  0  0
  6 44  1  0  0  0  0
  6 45  1  0  0  0  0
  7  8  1  0  0  0  0
  7 46  1  0  0  0  0
  8  9  1  0  0  0  0
  8 47  1  0  0  0  0
  8 48  1  0  0  0  0
  9 10  2  0  0  0  0
  9 38  1  0  0  0  0
 10 11  1  0  0  0  0
 10 49  1  0  0  0  0
 11 12  1  0  0  0  0
 12 13  1  0  0  0  0
 12 38  2  0  0  0  0
 13 14  1  0  0  0  0
 13 37  2  0  0  0  0
 14 15  2  0  0  0  0
 14 50  1  0  0  0  0
 15 16  1  0  0  0  0
 15 51  1  0  0  0  0
 16 17  1  0  0  0  0
 16 36  2  0  0  0  0
 17 18  2  0  0  0  0
 18 19  1  0  0  0  0
 18 52  1  0  0  0  0
 19 20  2  0  0  0  0
 20 21  1  0  0  0  0
 20 36  1  0  0  0  0
 21 22  1  0  0  0  0
 21 53  1  0  0  0  0
 22 23  1  0  0  0  0
 22 35  2  0  0  0  0
 23 24  2  0  0  0  0
 23 54  1  0  0  0  0
 24 25  1  0  0  0  0
 24 55  1  0  0  0  0
 25 26  1  0  0  0  0
 25 34  2  0  0  0  0
 26 27  1  0  0  0  0
 27 28  1  0  0  0  0
 27 56  1  0  0  0  0
 27 57  1  0  0  0  0
 28 29  1  0  0  0  0
 28 33  2  0  0  0  0
 29 30  2  0  0  0  0
 29 58  1  0  0  0  0
 30 31  1  0  0  0  0
 30 59  1  0  0  0  0
 31 32  2  0  0  0  0
 31 60  1  0  0  0  0
 32 33  1  0  0  0  0
 32 61  1  0  0  0  0
 33 62  1  0  0  0  0
 34 35  1  0  0  0  0
 34 63  1  0  0  0  0
 35 64  1  0  0  0  0
 36 37  1  0  0  0  0
 37 65  1  0  0  0  0
 38 66  1  0  0  0  0
M  END
