
 OpenBabel03132514253D

 48 51  0  0  0  0  0  0  0  0999 V2000
    0.9027   -0.0192   -0.0125 O   0  0  0  0  0  0  0  0  0  0  0  0
    0.4293    0.7524    1.0815 C   0  0  0  0  0  0  0  0  0  0  0  0
    0.9360    0.1512    2.3824 C   0  0  0  0  0  0  0  0  0  0  0  0
    2.4560    0.1512    2.3824 C   0  0  0  0  0  0  0  0  0  0  0  0
    2.9460    1.5315    2.2569 N   0  0  0  0  0  0  0  0  0  0  0  0
    3.7911    2.1101    3.3113 C   0  0  0  0  0  0  0  0  0  0  0  0
    3.4110    3.3228    3.7330 N   0  0  0  0  0  0  0  0  0  0  0  0
    4.1212    3.7865    4.7719 C   0  0  0  0  0  0  0  0  0  0  0  0
    5.1569    3.1195    5.3451 C   0  0  0  0  0  0  0  0  0  0  0  0
    5.4758    1.8961    4.8042 C   0  0  0  0  0  0  0  0  0  0  0  0
    6.6542    1.1288    5.3811 C   0  0  0  0  0  0  0  0  0  0  0  0
    7.7597    0.7761    4.7574 C   0  0  0  0  0  0  0  0  0  0  0  0
    8.0533    1.0520    3.2918 C   0  0  0  0  0  0  0  0  0  0  0  0
    8.0939    2.3863    2.7996 C   0  0  0  0  0  0  0  0  0  0  0  0
    7.9969    2.6139    1.4171 C   0  0  0  0  0  0  0  0  0  0  0  0
    8.1446    1.6269    0.5831 C   0  0  0  0  0  0  0  0  0  0  0  0
    8.0424    1.8421   -0.7254 F   0  0  0  0  0  0  0  0  0  0  0  0
    8.4112    0.3371    1.0614 C   0  0  0  0  0  0  0  0  0  0  0  0
    8.2106    0.0438    2.4323 C   0  0  0  0  0  0  0  0  0  0  0  0
    8.5799    0.1474    5.5866 N   0  0  0  0  0  0  0  0  0  0  0  0
    8.0057    0.0834    6.7869 N   0  0  0  0  0  0  0  0  0  0  0  0
    8.3731   -0.4478    8.0410 C   0  0  0  0  0  0  0  0  0  0  0  0
    7.5222   -0.3336    9.0839 C   0  0  0  0  0  0  0  0  0  0  0  0
    7.9251   -0.9002   10.4355 C   0  0  0  0  0  0  0  0  0  0  0  0
    8.1364   -2.2085   10.3227 F   0  0  0  0  0  0  0  0  0  0  0  0
    9.0397   -0.3054   10.8512 F   0  0  0  0  0  0  0  0  0  0  0  0
    6.9518   -0.6826   11.3154 F   0  0  0  0  0  0  0  0  0  0  0  0
    6.3146    0.2759    8.9534 C   0  0  0  0  0  0  0  0  0  0  0  0
    5.9112    0.8078    7.7780 C   0  0  0  0  0  0  0  0  0  0  0  0
    6.7422    0.7257    6.6590 C   0  0  0  0  0  0  0  0  0  0  0  0
    4.7971    1.3584    3.7995 N   0  0  0  0  0  0  0  0  0  0  0  0
    1.9027   -0.0192   -0.0125 H   0  0  0  0  0  0  0  0  0  0  0  0
    0.7860    1.7571    0.9901 H   0  0  0  0  0  0  0  0  0  0  0  0
   -0.6407    0.7524    1.0815 H   0  0  0  0  0  0  0  0  0  0  0  0
    0.5793    0.7327    3.2068 H   0  0  0  0  0  0  0  0  0  0  0  0
    0.5793   -0.8534    2.4737 H   0  0  0  0  0  0  0  0  0  0  0  0
    2.8127   -0.2720    3.2981 H   0  0  0  0  0  0  0  0  0  0  0  0
    2.8127   -0.4302    1.5580 H   0  0  0  0  0  0  0  0  0  0  0  0
    2.6996    2.0877    1.4381 H   0  0  0  0  0  0  0  0  0  0  0  0
    3.8555    4.7416    5.1745 H   0  0  0  0  0  0  0  0  0  0  0  0
    5.6967    3.5254    6.1750 H   0  0  0  0  0  0  0  0  0  0  0  0
    8.1974    3.2086    3.4764 H   0  0  0  0  0  0  0  0  0  0  0  0
    7.8014    3.5997    1.0498 H   0  0  0  0  0  0  0  0  0  0  0  0
    8.7642   -0.4218    0.3948 H   0  0  0  0  0  0  0  0  0  0  0  0
    8.1857   -0.9701    2.7733 H   0  0  0  0  0  0  0  0  0  0  0  0
    9.3168   -0.9366    8.1650 H   0  0  0  0  0  0  0  0  0  0  0  0
    5.6665    0.3363    9.8027 H   0  0  0  0  0  0  0  0  0  0  0  0
    4.9586    1.2898    7.7054 H   0  0  0  0  0  0  0  0  0  0  0  0
  1  2  1  0  0  0  0
  1 32  1  0  0  0  0
  2  3  1  0  0  0  0
  2 33  1  0  0  0  0
  2 34  1  0  0  0  0
  3  4  1  0  0  0  0
  3 35  1  0  0  0  0
  3 36  1  0  0  0  0
  4  5  1  0  0  0  0
  4 37  1  0  0  0  0
  4 38  1  0  0  0  0
  5  6  1  0  0  0  0
  5 39  1  0  0  0  0
  6  7  1  0  0  0  0
  6 31  2  0  0  0  0
  7  8  2  0  0  0  0
  8  9  1  0  0  0  0
  8 40  1  0  0  0  0
  9 10  2  0  0  0  0
  9 41  1  0  0  0  0
 10 11  1  0  0  0  0
 10 31  1  0  0  0  0
 11 12  1  0  0  0  0
 11 30  2  0  0  0  0
 12 13  1  0  0  0  0
 12 20  2  0  0  0  0
 13 14  1  0  0  0  0
 13 19  2  0  0  0  0
 14 15  2  0  0  0  0
 14 42  1  0  0  0  0
 15 16  1  0  0  0  0
 15 43  1  0  0  0  0
 16 17  1  0  0  0  0
 16 18  2  0  0  0  0
 18 19  1  0  0  0  0
 18 44  1  0  0  0  0
 19 45  1  0  0  0  0
 20 21  1  0  0  0  0
 21 22  1  0  0  0  0
 21 30  1  0  0  0  0
 22 23  2  0  0  0  0
 22 46  1  0  0  0  0
 23 24  1  0  0  0  0
 23 28  1  0  0  0  0
 24 25  1  0  0  0  0
 24 26  1  0  0  0  0
 24 27  1  0  0  0  0
 28 29  2  0  0  0  0
 28 47  1  0  0  0  0
 29 30  1  0  0  0  0
 29 48  1  0  0  0  0
M  END
