
 OpenBabel03132514253D

 38 41  0  0  0  0  0  0  0  0999 V2000
   -2.2030   -0.0010    0.0120 N   0  0  0  0  0  0  0  0  0  0  0  0
   -0.8560    0.0090   -0.0040 C   0  0  0  0  0  0  0  0  0  0  0  0
   -0.2400    1.2090   -0.0050 N   0  0  0  0  0  0  0  0  0  0  0  0
    1.1020    1.1880   -0.0040 C   0  0  0  0  0  0  0  0  0  0  0  0
    1.8120   -0.0110    0.0090 C   0  0  0  0  0  0  0  0  0  0  0  0
    1.0850   -1.1970    0.0090 C   0  0  0  0  0  0  0  0  0  0  0  0
    1.8283   -2.5226    0.0381 C   0  0  0  0  0  0  0  0  0  0  0  0
    2.6534   -2.9235    0.9837 C   0  0  0  0  0  0  0  0  0  0  0  0
    3.0064   -2.1188    2.2239 C   0  0  0  0  0  0  0  0  0  0  0  0
    1.9319   -1.7723    3.0897 C   0  0  0  0  0  0  0  0  0  0  0  0
    2.1666   -0.8977    4.1633 C   0  0  0  0  0  0  0  0  0  0  0  0
    3.3855   -0.6270    4.5275 C   0  0  0  0  0  0  0  0  0  0  0  0
    3.6065    0.2093    5.5378 F   0  0  0  0  0  0  0  0  0  0  0  0
    4.4661   -1.2153    3.8569 C   0  0  0  0  0  0  0  0  0  0  0  0
    4.2548   -1.8434    2.6054 C   0  0  0  0  0  0  0  0  0  0  0  0
    3.1323   -4.1263    0.7022 N   0  0  0  0  0  0  0  0  0  0  0  0
    2.6117   -4.5322   -0.4549 N   0  0  0  0  0  0  0  0  0  0  0  0
    2.7341   -5.6896   -1.2521 C   0  0  0  0  0  0  0  0  0  0  0  0
    2.0386   -5.7753   -2.4068 C   0  0  0  0  0  0  0  0  0  0  0  0
    2.1670   -7.0274   -3.2590 C   0  0  0  0  0  0  0  0  0  0  0  0
    3.4359   -7.1867   -3.6244 F   0  0  0  0  0  0  0  0  0  0  0  0
    1.7721   -8.0848   -2.5556 F   0  0  0  0  0  0  0  0  0  0  0  0
    1.4055   -6.9061   -4.3426 F   0  0  0  0  0  0  0  0  0  0  0  0
    1.2267   -4.7687   -2.8248 C   0  0  0  0  0  0  0  0  0  0  0  0
    1.0663   -3.6389   -2.1004 C   0  0  0  0  0  0  0  0  0  0  0  0
    1.7550   -3.4847   -0.8957 C   0  0  0  0  0  0  0  0  0  0  0  0
   -0.2520   -1.1990   -0.0160 N   0  0  0  0  0  0  0  0  0  0  0  0
   -2.7195    0.8785    0.0228 H   0  0  0  0  0  0  0  0  0  0  0  0
   -2.7064   -0.8881    0.0133 H   0  0  0  0  0  0  0  0  0  0  0  0
    1.6391    2.1134   -0.0134 H   0  0  0  0  0  0  0  0  0  0  0  0
    2.8819   -0.0191    0.0187 H   0  0  0  0  0  0  0  0  0  0  0  0
    0.9541   -2.1743    2.9245 H   0  0  0  0  0  0  0  0  0  0  0  0
    1.3424   -0.4540    4.6817 H   0  0  0  0  0  0  0  0  0  0  0  0
    5.4451   -1.1900    4.2879 H   0  0  0  0  0  0  0  0  0  0  0  0
    5.0832   -2.0930    1.9758 H   0  0  0  0  0  0  0  0  0  0  0  0
    3.3719   -6.4920   -0.9449 H   0  0  0  0  0  0  0  0  0  0  0  0
    0.7012   -4.8733   -3.7510 H   0  0  0  0  0  0  0  0  0  0  0  0
    0.4139   -2.8656   -2.4488 H   0  0  0  0  0  0  0  0  0  0  0  0
  1  2  1  0  0  0  0
  1 28  1  0  0  0  0
  1 29  1  0  0  0  0
  2  3  1  0  0  0  0
  2 27  2  0  0  0  0
  3  4  2  0  0  0  0
  4  5  1  0  0  0  0
  4 30  1  0  0  0  0
  5  6  2  0  0  0  0
  5 31  1  0  0  0  0
  6  7  1  0  0  0  0
  6 27  1  0  0  0  0
  7  8  1  0  0  0  0
  7 26  2  0  0  0  0
  8  9  1  0  0  0  0
  8 16  2  0  0  0  0
  9 10  1  0  0  0  0
  9 15  2  0  0  0  0
 10 11  2  0  0  0  0
 10 32  1  0  0  0  0
 11 12  1  0  0  0  0
 11 33  1  0  0  0  0
 12 13  1  0  0  0  0
 12 14  2  0  0  0  0
 14 15  1  0  0  0  0
 14 34  1  0  0  0  0
 15 35  1  0  0  0  0
 16 17  1  0  0  0  0
 17 18  1  0  0  0  0
 17 26  1  0  0  0  0
 18 19  2  0  0  0  0
 18 36  1  0  0  0  0
 19 20  1  0  0  0  0
 19 24  1  0  0  0  0
 20 21  1  0  0  0  0
 20 22  1  0  0  0  0
 20 23  1  0  0  0  0
 24 25  2  0  0  0  0
 24 37  1  0  0  0  0
 25 26  1  0  0  0  0
 25 38  1  0  0  0  0
M  END
