
 OpenBabel03132514253D

 66 70  0  0  0  0  0  0  0  0999 V2000
    0.9384   -0.0179   -0.0767 C   0  0  0  0  0  0  0  0  0  0  0  0
    0.3350   -1.0477   -1.4374 S   0  0  0  0  0  0  0  0  0  0  0  0
    0.8452   -2.4795   -1.2586 O   0  0  0  0  0  0  0  0  0  0  0  0
   -1.1954   -1.0477   -1.4374 O   0  0  0  0  0  0  0  0  0  0  0  0
    0.9384   -0.3842   -3.0096 C   0  0  0  0  0  0  0  0  0  0  0  0
    0.4317    1.0378   -3.1873 C   0  0  0  0  0  0  0  0  0  0  0  0
    0.9217    1.8742   -2.0822 N   0  0  0  0  0  0  0  0  0  0  0  0
    0.4317    3.2494   -2.2539 C   0  0  0  0  0  0  0  0  0  0  0  0
   -1.0883    3.2494   -2.2539 C   0  0  0  0  0  0  0  0  0  0  0  0
   -1.8320    2.1341   -2.2544 C   0  0  0  0  0  0  0  0  0  0  0  0
   -3.1755    2.5836   -2.2699 C   0  0  0  0  0  0  0  0  0  0  0  0
   -3.1428    3.9397   -2.2752 C   0  0  0  0  0  0  0  0  0  0  0  0
   -4.3660    4.8416   -2.3013 C   0  0  0  0  0  0  0  0  0  0  0  0
   -5.3106    4.7694   -1.2596 C   0  0  0  0  0  0  0  0  0  0  0  0
   -6.4182    5.5708   -1.2630 C   0  0  0  0  0  0  0  0  0  0  0  0
   -6.6154    6.5060   -2.3035 C   0  0  0  0  0  0  0  0  0  0  0  0
   -7.7137    7.3275   -2.2826 N   0  0  0  0  0  0  0  0  0  0  0  0
   -7.8337    8.1644   -3.2762 C   0  0  0  0  0  0  0  0  0  0  0  0
   -6.9885    8.2987   -4.3442 N   0  0  0  0  0  0  0  0  0  0  0  0
   -5.9419    7.5100   -4.3846 C   0  0  0  0  0  0  0  0  0  0  0  0
   -5.0213    7.6030   -5.5269 N   0  0  0  0  0  0  0  0  0  0  0  0
   -5.2806    8.5704   -6.6029 C   0  0  0  0  0  0  0  0  0  0  0  0
   -5.3462    9.9375   -6.3494 C   0  0  0  0  0  0  0  0  0  0  0  0
   -5.7819   10.7913   -7.3334 C   0  0  0  0  0  0  0  0  0  0  0  0
   -6.1276   10.3128   -8.5797 C   0  0  0  0  0  0  0  0  0  0  0  0
   -6.5680   11.2039   -9.5938 O   0  0  0  0  0  0  0  0  0  0  0  0
   -6.9221   10.7029  -10.8745 C   0  0  0  0  0  0  0  0  0  0  0  0
   -5.7228   10.0048  -11.4947 C   0  0  0  0  0  0  0  0  0  0  0  0
   -5.7840    8.6309  -11.6601 C   0  0  0  0  0  0  0  0  0  0  0  0
   -4.5434    8.0377  -11.9933 C   0  0  0  0  0  0  0  0  0  0  0  0
   -3.5004    8.6970  -12.4641 C   0  0  0  0  0  0  0  0  0  0  0  0
   -3.5308   10.0575  -12.3319 C   0  0  0  0  0  0  0  0  0  0  0  0
   -4.6620   10.6994  -11.8890 C   0  0  0  0  0  0  0  0  0  0  0  0
   -6.0439    9.0071   -8.8218 C   0  0  0  0  0  0  0  0  0  0  0  0
   -6.4790    8.3271  -10.5366 Br  0  0  0  0  0  0  0  0  0  0  0  0
   -5.6226    8.0972   -7.8655 C   0  0  0  0  0  0  0  0  0  0  0  0
   -5.6715    6.5659   -3.3534 C   0  0  0  0  0  0  0  0  0  0  0  0
   -4.5418    5.7166   -3.3350 C   0  0  0  0  0  0  0  0  0  0  0  0
   -1.8406    4.3777   -2.2535 O   0  0  0  0  0  0  0  0  0  0  0  0
    0.5817   -0.4101    0.8527 H   0  0  0  0  0  0  0  0  0  0  0  0
    0.5817    0.9832   -0.2017 H   0  0  0  0  0  0  0  0  0  0  0  0
    2.0084   -0.0179   -0.0767 H   0  0  0  0  0  0  0  0  0  0  0  0
    2.0084   -0.3842   -3.0096 H   0  0  0  0  0  0  0  0  0  0  0  0
    0.5817   -0.9930   -3.8140 H   0  0  0  0  0  0  0  0  0  0  0  0
    0.7884    1.4300   -4.1167 H   0  0  0  0  0  0  0  0  0  0  0  0
   -0.6383    1.0378   -3.1873 H   0  0  0  0  0  0  0  0  0  0  0  0
    0.5817    1.5003   -1.1962 H   0  0  0  0  0  0  0  0  0  0  0  0
    0.7884    3.8582   -1.4495 H   0  0  0  0  0  0  0  0  0  0  0  0
    0.7884    3.6417   -3.1834 H   0  0  0  0  0  0  0  0  0  0  0  0
   -1.4854    1.1219   -2.2450 H   0  0  0  0  0  0  0  0  0  0  0  0
   -4.0513    1.9689   -2.2764 H   0  0  0  0  0  0  0  0  0  0  0  0
   -5.1598    4.0792   -0.4559 H   0  0  0  0  0  0  0  0  0  0  0  0
   -7.1379    5.4896   -0.4753 H   0  0  0  0  0  0  0  0  0  0  0  0
   -8.6831    8.8147   -3.2537 H   0  0  0  0  0  0  0  0  0  0  0  0
   -4.2027    6.9963   -5.5728 H   0  0  0  0  0  0  0  0  0  0  0  0
   -5.0586   10.3215   -5.3929 H   0  0  0  0  0  0  0  0  0  0  0  0
   -5.8539   11.8394   -7.1305 H   0  0  0  0  0  0  0  0  0  0  0  0
   -7.7280   10.0063  -10.7746 H   0  0  0  0  0  0  0  0  0  0  0  0
   -7.2271   11.5136  -11.5027 H   0  0  0  0  0  0  0  0  0  0  0  0
   -6.6876    8.0692  -11.5463 H   0  0  0  0  0  0  0  0  0  0  0  0
   -4.4433    6.9816  -11.8542 H   0  0  0  0  0  0  0  0  0  0  0  0
   -2.6760    8.1935  -12.9242 H   0  0  0  0  0  0  0  0  0  0  0  0
   -2.6610   10.6306  -12.5768 H   0  0  0  0  0  0  0  0  0  0  0  0
   -4.6885   11.7687  -11.8616 H   0  0  0  0  0  0  0  0  0  0  0  0
   -5.5615    7.0535   -8.0933 H   0  0  0  0  0  0  0  0  0  0  0  0
   -3.8261    5.7591   -4.1292 H   0  0  0  0  0  0  0  0  0  0  0  0
  1  2  1  0  0  0  0
  1 40  1  0  0  0  0
  1 41  1  0  0  0  0
  1 42  1  0  0  0  0
  2  3  2  0  0  0  0
  2  4  2  0  0  0  0
  2  5  1  0  0  0  0
  5  6  1  0  0  0  0
  5 43  1  0  0  0  0
  5 44  1  0  0  0  0
  6  7  1  0  0  0  0
  6 45  1  0  0  0  0
  6 46  1  0  0  0  0
  7  8  1  0  0  0  0
  7 47  1  0  0  0  0
  8  9  1  0  0  0  0
  8 48  1  0  0  0  0
  8 49  1  0  0  0  0
  9 10  2  0  0  0  0
  9 39  1  0  0  0  0
 10 11  1  0  0  0  0
 10 50  1  0  0  0  0
 11 12  2  0  0  0  0
 11 51  1  0  0  0  0
 12 13  1  0  0  0  0
 12 39  1  0  0  0  0
 13 14  1  0  0  0  0
 13 38  2  0  0  0  0
 14 15  2  0  0  0  0
 14 52  1  0  0  0  0
 15 16  1  0  0  0  0
 15 53  1  0  0  0  0
 16 17  1  0  0  0  0
 16 37  2  0  0  0  0
 17 18  2  0  0  0  0
 18 19  1  0  0  0  0
 18 54  1  0  0  0  0
 19 20  2  0  0  0  0
 20 21  1  0  0  0  0
 20 37  1  0  0  0  0
 21 22  1  0  0  0  0
 21 55  1  0  0  0  0
 22 23  1  0  0  0  0
 22 36  2  0  0  0  0
 23 24  2  0  0  0  0
 23 56  1  0  0  0  0
 24 25  1  0  0  0  0
 24 57  1  0  0  0  0
 25 26  1  0  0  0  0
 25 34  2  0  0  0  0
 26 27  1  0  0  0  0
 27 28  1  0  0  0  0
 27 58  1  0  0  0  0
 27 59  1  0  0  0  0
 28 29  1  0  0  0  0
 28 33  2  0  0  0  0
 29 30  2  0  0  0  0
 29 60  1  0  0  0  0
 30 31  1  0  0  0  0
 30 61  1  0  0  0  0
 31 32  2  0  0  0  0
 31 62  1  0  0  0  0
 32 33  1  0  0  0  0
 32 63  1  0  0  0  0
 33 64  1  0  0  0  0
 34 35  1  0  0  0  0
 34 36  1  0  0  0  0
 36 65  1  0  0  0  0
 37 38  1  0  0  0  0
 38 66  1  0  0  0  0
M  END
