
 OpenBabel03132514253D

 56 59  0  0  0  0  0  0  0  0999 V2000
    1.0674    0.0404   -0.0619 C   0  0  0  0  0  0  0  0  0  0  0  0
    0.5607   -1.0884   -0.9447 C   0  0  0  0  0  0  0  0  0  0  0  0
    1.1640   -2.6710   -0.3062 S   0  0  0  0  0  0  0  0  0  0  0  0
    0.6539   -2.8725    1.1225 O   0  0  0  0  0  0  0  0  0  0  0  0
    0.6539   -3.8076   -1.1951 O   0  0  0  0  0  0  0  0  0  0  0  0
    2.9740   -2.6710   -0.3062 C   0  0  0  0  0  0  0  0  0  0  0  0
    3.6535   -3.8776   -0.3380 C   0  0  0  0  0  0  0  0  0  0  0  0
    5.0325   -3.7669   -0.0414 C   0  0  0  0  0  0  0  0  0  0  0  0
    5.7196   -2.6399   -0.0835 C   0  0  0  0  0  0  0  0  0  0  0  0
    7.1395   -2.6291   -0.0909 O   0  0  0  0  0  0  0  0  0  0  0  0
    7.8399   -1.3947   -0.1367 C   0  0  0  0  0  0  0  0  0  0  0  0
    4.9901   -1.4840   -0.1195 C   0  0  0  0  0  0  0  0  0  0  0  0
    5.6759   -0.1903    0.0108 N   0  0  0  0  0  0  0  0  0  0  0  0
    7.1356   -0.1458    0.1785 C   0  0  0  0  0  0  0  0  0  0  0  0
    7.5900    0.4291    1.2992 N   0  0  0  0  0  0  0  0  0  0  0  0
    8.9260    0.4172    1.4154 C   0  0  0  0  0  0  0  0  0  0  0  0
    9.7674   -0.0988    0.4816 C   0  0  0  0  0  0  0  0  0  0  0  0
    9.1848   -0.6335   -0.6434 C   0  0  0  0  0  0  0  0  0  0  0  0
   10.0542   -1.1665   -1.7020 N   0  0  0  0  0  0  0  0  0  0  0  0
    9.4628   -1.7449   -2.9172 C   0  0  0  0  0  0  0  0  0  0  0  0
   11.5152   -1.1212   -1.5456 C   0  0  0  0  0  0  0  0  0  0  0  0
   12.2762   -0.4238   -2.4692 C   0  0  0  0  0  0  0  0  0  0  0  0
   13.6633   -0.6907   -2.3875 C   0  0  0  0  0  0  0  0  0  0  0  0
   14.2601   -1.2410   -1.3458 C   0  0  0  0  0  0  0  0  0  0  0  0
   15.6899   -1.1962   -1.1793 C   0  0  0  0  0  0  0  0  0  0  0  0
   16.5548   -0.5018   -2.2186 C   0  0  0  0  0  0  0  0  0  0  0  0
   16.2803   -1.7892   -0.0658 N   0  0  0  0  0  0  0  0  0  0  0  0
   14.0137   -2.5996    0.5984 N   0  0  0  0  0  0  0  0  0  0  0  0
   13.4475   -1.8556   -0.4340 C   0  0  0  0  0  0  0  0  0  0  0  0
   12.0804   -1.7497   -0.5214 C   0  0  0  0  0  0  0  0  0  0  0  0
    7.8703   -0.6879   -0.8122 N   0  0  0  0  0  0  0  0  0  0  0  0
    3.6254   -1.5143   -0.2758 C   0  0  0  0  0  0  0  0  0  0  0  0
    0.7107   -0.1005    0.9370 H   0  0  0  0  0  0  0  0  0  0  0  0
    0.7107    0.9759   -0.4393 H   0  0  0  0  0  0  0  0  0  0  0  0
    2.1374    0.0404   -0.0619 H   0  0  0  0  0  0  0  0  0  0  0  0
   -0.5093   -1.0884   -0.9447 H   0  0  0  0  0  0  0  0  0  0  0  0
    0.9174   -0.9476   -1.9436 H   0  0  0  0  0  0  0  0  0  0  0  0
    3.1786   -4.8089   -0.5662 H   0  0  0  0  0  0  0  0  0  0  0  0
    5.5551   -4.6584    0.2363 H   0  0  0  0  0  0  0  0  0  0  0  0
    7.5727   -0.8658   -1.0277 H   0  0  0  0  0  0  0  0  0  0  0  0
    7.5814   -0.8060    0.7186 H   0  0  0  0  0  0  0  0  0  0  0  0
    8.8934   -1.5821   -0.1355 H   0  0  0  0  0  0  0  0  0  0  0  0
    5.1388    0.6765   -0.0150 H   0  0  0  0  0  0  0  0  0  0  0  0
    9.3563    0.8407    2.2989 H   0  0  0  0  0  0  0  0  0  0  0  0
   10.8291   -0.0896    0.6149 H   0  0  0  0  0  0  0  0  0  0  0  0
    9.7975   -1.1962   -3.7727 H   0  0  0  0  0  0  0  0  0  0  0  0
    9.7644   -2.7674   -3.0088 H   0  0  0  0  0  0  0  0  0  0  0  0
    8.3959   -1.6919   -2.8545 H   0  0  0  0  0  0  0  0  0  0  0  0
   11.8535    0.2552   -3.1799 H   0  0  0  0  0  0  0  0  0  0  0  0
   14.2711   -0.4284   -3.2282 H   0  0  0  0  0  0  0  0  0  0  0  0
   17.0955    0.2974   -1.7563 H   0  0  0  0  0  0  0  0  0  0  0  0
   17.2450   -1.2051   -2.6357 H   0  0  0  0  0  0  0  0  0  0  0  0
   15.9326   -0.1090   -2.9955 H   0  0  0  0  0  0  0  0  0  0  0  0
   17.2929   -1.7575    0.0522 H   0  0  0  0  0  0  0  0  0  0  0  0
   11.4655   -2.1776    0.2426 H   0  0  0  0  0  0  0  0  0  0  0  0
    3.0825   -0.5974   -0.3738 H   0  0  0  0  0  0  0  0  0  0  0  0
  1  2  1  0  0  0  0
  1 33  1  0  0  0  0
  1 34  1  0  0  0  0
  1 35  1  0  0  0  0
  2  3  1  0  0  0  0
  2 36  1  0  0  0  0
  2 37  1  0  0  0  0
  3  4  2  0  0  0  0
  3  5  2  0  0  0  0
  3  6  1  0  0  0  0
  6  7  1  0  0  0  0
  6 32  2  0  0  0  0
  7  8  2  0  0  0  0
  7 38  1  0  0  0  0
  8  9  1  0  0  0  0
  8 39  1  0  0  0  0
  9 10  1  0  0  0  0
  9 12  2  0  0  0  0
 10 11  1  0  0  0  0
 11 40  1  0  0  0  0
 11 41  1  0  0  0  0
 11 42  1  0  0  0  0
 12 13  1  0  0  0  0
 12 32  1  0  0  0  0
 13 14  1  0  0  0  0
 13 43  1  0  0  0  0
 14 15  1  0  0  0  0
 14 31  2  0  0  0  0
 15 16  2  0  0  0  0
 16 17  1  0  0  0  0
 16 44  1  0  0  0  0
 17 18  2  0  0  0  0
 17 45  1  0  0  0  0
 18 19  1  0  0  0  0
 18 31  1  0  0  0  0
 19 20  1  0  0  0  0
 19 21  1  0  0  0  0
 20 46  1  0  0  0  0
 20 47  1  0  0  0  0
 20 48  1  0  0  0  0
 21 22  1  0  0  0  0
 21 30  2  0  0  0  0
 22 23  2  0  0  0  0
 22 49  1  0  0  0  0
 23 24  1  0  0  0  0
 23 50  1  0  0  0  0
 24 25  2  0  0  0  0
 24 29  1  0  0  0  0
 25 26  1  0  0  0  0
 25 27  1  0  0  0  0
 26 51  1  0  0  0  0
 26 52  1  0  0  0  0
 26 53  1  0  0  0  0
 27 28  1  0  0  0  0
 27 54  1  0  0  0  0
 28 29  2  0  0  0  0
 29 30  1  0  0  0  0
 30 55  1  0  0  0  0
 32 56  1  0  0  0  0
M  END
