
 OpenBabel03132514253D

 37 40  0  0  0  0  0  0  0  0999 V2000
    2.1370   -0.0110   -0.0020 F   0  0  0  0  0  0  0  0  0  0  0  0
    0.7800   -0.0010    0.0050 C   0  0  0  0  0  0  0  0  0  0  0  0
    0.1270   -1.1860    0.0050 C   0  0  0  0  0  0  0  0  0  0  0  0
   -1.2590   -1.1770   -0.0060 C   0  0  0  0  0  0  0  0  0  0  0  0
   -1.9460    0.0020   -0.0010 C   0  0  0  0  0  0  0  0  0  0  0  0
   -3.4660    0.0108   -0.0020 C   0  0  0  0  0  0  0  0  0  0  0  0
   -4.1254    0.6250   -1.0484 C   0  0  0  0  0  0  0  0  0  0  0  0
   -5.5220    0.6618   -1.0534 C   0  0  0  0  0  0  0  0  0  0  0  0
   -6.2873    1.3447   -2.1753 C   0  0  0  0  0  0  0  0  0  0  0  0
   -7.0556    2.5204   -2.0241 C   0  0  0  0  0  0  0  0  0  0  0  0
   -7.4944    2.9512   -3.1952 N   0  0  0  0  0  0  0  0  0  0  0  0
   -7.0150    2.0466   -4.1003 N   0  0  0  0  0  0  0  0  0  0  0  0
   -6.2818    1.0727   -3.4950 C   0  0  0  0  0  0  0  0  0  0  0  0
   -5.5899   -0.0966   -4.1765 C   0  0  0  0  0  0  0  0  0  0  0  0
   -5.8930   -1.4107   -3.8794 C   0  0  0  0  0  0  0  0  0  0  0  0
   -5.1301   -2.4362   -4.4436 C   0  0  0  0  0  0  0  0  0  0  0  0
   -4.1004   -2.0751   -5.3031 C   0  0  0  0  0  0  0  0  0  0  0  0
   -3.8822   -0.7416   -5.5638 C   0  0  0  0  0  0  0  0  0  0  0  0
   -4.5950    0.2444   -5.0104 N   0  0  0  0  0  0  0  0  0  0  0  0
   -6.1864    0.0522    0.0033 C   0  0  0  0  0  0  0  0  0  0  0  0
   -5.4514   -0.5590    0.9932 C   0  0  0  0  0  0  0  0  0  0  0  0
   -4.1151   -0.5787    1.0142 N   0  0  0  0  0  0  0  0  0  0  0  0
   -1.2340    1.1920    0.0050 C   0  0  0  0  0  0  0  0  0  0  0  0
    0.1520    1.1880   -0.0060 C   0  0  0  0  0  0  0  0  0  0  0  0
    0.6682   -2.1090    0.0133 H   0  0  0  0  0  0  0  0  0  0  0  0
   -1.7951   -2.1029   -0.0185 H   0  0  0  0  0  0  0  0  0  0  0  0
   -3.5713    1.0691   -1.8488 H   0  0  0  0  0  0  0  0  0  0  0  0
   -7.2556    2.9983   -1.0880 H   0  0  0  0  0  0  0  0  0  0  0  0
   -7.1855    2.0952   -5.1048 H   0  0  0  0  0  0  0  0  0  0  0  0
   -6.7054   -1.6417   -3.2225 H   0  0  0  0  0  0  0  0  0  0  0  0
   -5.3319   -3.4633   -4.2214 H   0  0  0  0  0  0  0  0  0  0  0  0
   -3.4850   -2.8238   -5.7565 H   0  0  0  0  0  0  0  0  0  0  0  0
   -3.1003   -0.4802   -6.2459 H   0  0  0  0  0  0  0  0  0  0  0  0
   -7.2555    0.0577    0.0469 H   0  0  0  0  0  0  0  0  0  0  0  0
   -5.9777   -1.0442    1.7884 H   0  0  0  0  0  0  0  0  0  0  0  0
   -1.7604    2.1235    0.0183 H   0  0  0  0  0  0  0  0  0  0  0  0
    0.7056    2.1035   -0.0227 H   0  0  0  0  0  0  0  0  0  0  0  0
  1  2  1  0  0  0  0
  2  3  1  0  0  0  0
  2 24  2  0  0  0  0
  3  4  2  0  0  0  0
  3 25  1  0  0  0  0
  4  5  1  0  0  0  0
  4 26  1  0  0  0  0
  5  6  1  0  0  0  0
  5 23  2  0  0  0  0
  6  7  1  0  0  0  0
  6 22  2  0  0  0  0
  7  8  2  0  0  0  0
  7 27  1  0  0  0  0
  8  9  1  0  0  0  0
  8 20  1  0  0  0  0
  9 10  1  0  0  0  0
  9 13  2  0  0  0  0
 10 11  2  0  0  0  0
 10 28  1  0  0  0  0
 11 12  1  0  0  0  0
 12 13  1  0  0  0  0
 12 29  1  0  0  0  0
 13 14  1  0  0  0  0
 14 15  1  0  0  0  0
 14 19  2  0  0  0  0
 15 16  2  0  0  0  0
 15 30  1  0  0  0  0
 16 17  1  0  0  0  0
 16 31  1  0  0  0  0
 17 18  2  0  0  0  0
 17 32  1  0  0  0  0
 18 19  1  0  0  0  0
 18 33  1  0  0  0  0
 20 21  2  0  0  0  0
 20 34  1  0  0  0  0
 21 22  1  0  0  0  0
 21 35  1  0  0  0  0
 23 24  1  0  0  0  0
 23 36  1  0  0  0  0
 24 37  1  0  0  0  0
M  END
