
 OpenBabel03132514253D

 53 58  0  0  0  0  0  0  0  0999 V2000
    0.9575    0.0905   -0.0026 F   0  0  0  0  0  0  0  0  0  0  0  0
    2.2875    0.0905   -0.0026 C   0  0  0  0  0  0  0  0  0  0  0  0
    2.7308   -1.1585   -0.1144 F   0  0  0  0  0  0  0  0  0  0  0  0
    2.7308    0.8118   -1.0283 F   0  0  0  0  0  0  0  0  0  0  0  0
    2.7941    0.6935    1.2975 C   0  0  0  0  0  0  0  0  0  0  0  0
    3.1717   -0.1268    2.3478 C   0  0  0  0  0  0  0  0  0  0  0  0
    3.1948    0.5241    3.6039 C   0  0  0  0  0  0  0  0  0  0  0  0
    3.2223    1.8341    3.7681 C   0  0  0  0  0  0  0  0  0  0  0  0
    2.9059    2.5910    2.6743 C   0  0  0  0  0  0  0  0  0  0  0  0
    2.7363    4.0938    2.8268 C   0  0  0  0  0  0  0  0  0  0  0  0
    3.6706    4.9455    3.2232 N   0  0  0  0  0  0  0  0  0  0  0  0
    3.1612    6.1763    3.2035 N   0  0  0  0  0  0  0  0  0  0  0  0
    3.6513    7.4634    3.5085 N   0  0  0  0  0  0  0  0  0  0  0  0
    2.8366    8.5321    3.3720 C   0  0  0  0  0  0  0  0  0  0  0  0
    1.5506    8.3976    2.9536 C   0  0  0  0  0  0  0  0  0  0  0  0
    1.0280    7.1905    2.6423 C   0  0  0  0  0  0  0  0  0  0  0  0
    1.8154    6.0435    2.7600 C   0  0  0  0  0  0  0  0  0  0  0  0
    1.6187    4.7325    2.5464 C   0  0  0  0  0  0  0  0  0  0  0  0
    0.3266    4.0941    2.0633 C   0  0  0  0  0  0  0  0  0  0  0  0
   -0.3107    3.1367    2.8450 C   0  0  0  0  0  0  0  0  0  0  0  0
   -1.6924    2.9519    2.6153 C   0  0  0  0  0  0  0  0  0  0  0  0
   -2.1224    3.0849    1.2963 N   0  0  0  0  0  0  0  0  0  0  0  0
   -1.3899    3.8005    0.4693 C   0  0  0  0  0  0  0  0  0  0  0  0
   -1.8151    3.9559   -0.9292 N   0  0  0  0  0  0  0  0  0  0  0  0
   -3.0521    3.3140   -1.3970 C   0  0  0  0  0  0  0  0  0  0  0  0
   -3.0079    2.3747   -2.4140 C   0  0  0  0  0  0  0  0  0  0  0  0
   -4.2768    2.0477   -2.9479 C   0  0  0  0  0  0  0  0  0  0  0  0
   -5.4276    2.2942   -2.3488 C   0  0  0  0  0  0  0  0  0  0  0  0
   -5.3935    3.1793   -1.3072 C   0  0  0  0  0  0  0  0  0  0  0  0
   -4.1985    3.6450   -0.8144 C   0  0  0  0  0  0  0  0  0  0  0  0
   -6.6108    3.6237   -0.7264 O   0  0  0  0  0  0  0  0  0  0  0  0
   -6.5872    4.5428    0.3557 C   0  0  0  0  0  0  0  0  0  0  0  0
   -5.8251    3.9337    1.5213 C   0  0  0  0  0  0  0  0  0  0  0  0
   -6.6353    1.6735   -2.7641 O   0  0  0  0  0  0  0  0  0  0  0  0
   -0.2111    4.4149    0.9061 N   0  0  0  0  0  0  0  0  0  0  0  0
    2.7391    2.0126    1.4391 C   0  0  0  0  0  0  0  0  0  0  0  0
    3.4230   -1.1591    2.2207 H   0  0  0  0  0  0  0  0  0  0  0  0
    3.1895   -0.0877    4.4817 H   0  0  0  0  0  0  0  0  0  0  0  0
    3.4784    2.2794    4.7068 H   0  0  0  0  0  0  0  0  0  0  0  0
    3.2127    9.5078    3.5987 H   0  0  0  0  0  0  0  0  0  0  0  0
    0.9361    9.2694    2.8685 H   0  0  0  0  0  0  0  0  0  0  0  0
    0.0147    7.1142    2.3070 H   0  0  0  0  0  0  0  0  0  0  0  0
    0.2180    2.5694    3.5823 H   0  0  0  0  0  0  0  0  0  0  0  0
   -2.3711    2.7224    3.4101 H   0  0  0  0  0  0  0  0  0  0  0  0
   -1.2519    4.5091   -1.5751 H   0  0  0  0  0  0  0  0  0  0  0  0
   -2.0969    1.9361   -2.7641 H   0  0  0  0  0  0  0  0  0  0  0  0
   -4.3060    1.5672   -3.9035 H   0  0  0  0  0  0  0  0  0  0  0  0
   -4.1916    4.2801    0.0467 H   0  0  0  0  0  0  0  0  0  0  0  0
   -6.1037    5.4457    0.0463 H   0  0  0  0  0  0  0  0  0  0  0  0
   -7.5895    4.7612    0.6601 H   0  0  0  0  0  0  0  0  0  0  0  0
   -5.8073    4.6262    2.3367 H   0  0  0  0  0  0  0  0  0  0  0  0
   -6.3086    3.0307    1.8307 H   0  0  0  0  0  0  0  0  0  0  0  0
    2.5632    2.6308    0.5837 H   0  0  0  0  0  0  0  0  0  0  0  0
  1  2  1  0  0  0  0
  2  3  1  0  0  0  0
  2  4  1  0  0  0  0
  2  5  1  0  0  0  0
  5  6  1  0  0  0  0
  5 36  2  0  0  0  0
  6  7  2  0  0  0  0
  6 37  1  0  0  0  0
  7  8  1  0  0  0  0
  7 38  1  0  0  0  0
  8  9  2  0  0  0  0
  8 39  1  0  0  0  0
  9 10  1  0  0  0  0
  9 36  1  0  0  0  0
 10 11  2  0  0  0  0
 10 18  1  0  0  0  0
 11 12  1  0  0  0  0
 12 13  1  0  0  0  0
 12 17  1  0  0  0  0
 13 14  2  0  0  0  0
 14 15  1  0  0  0  0
 14 40  1  0  0  0  0
 15 16  2  0  0  0  0
 15 41  1  0  0  0  0
 16 17  1  0  0  0  0
 16 42  1  0  0  0  0
 17 18  2  0  0  0  0
 18 19  1  0  0  0  0
 19 20  1  0  0  0  0
 19 35  2  0  0  0  0
 20 21  2  0  0  0  0
 20 43  1  0  0  0  0
 21 22  1  0  0  0  0
 21 44  1  0  0  0  0
 22 23  2  0  0  0  0
 23 24  1  0  0  0  0
 23 35  1  0  0  0  0
 24 25  1  0  0  0  0
 24 45  1  0  0  0  0
 25 26  1  0  0  0  0
 25 30  2  0  0  0  0
 26 27  2  0  0  0  0
 26 46  1  0  0  0  0
 27 28  1  0  0  0  0
 27 47  1  0  0  0  0
 28 29  2  0  0  0  0
 28 34  1  0  0  0  0
 29 30  1  0  0  0  0
 29 31  1  0  0  0  0
 30 48  1  0  0  0  0
 31 32  1  0  0  0  0
 32 33  1  0  0  0  0
 32 49  1  0  0  0  0
 32 50  1  0  0  0  0
 33 34  1  0  0  0  0
 33 51  1  0  0  0  0
 33 52  1  0  0  0  0
 36 53  1  0  0  0  0
M  END
