
 OpenBabel03132514253D

 82 86  0  0  0  0  0  0  0  0999 V2000
    1.0545   -0.0487   -0.0683 C   0  0  0  0  0  0  0  0  0  0  0  0
    0.5478    1.3777   -0.2067 C   0  0  0  0  0  0  0  0  0  0  0  0
    0.7075    1.8307   -1.6488 C   0  0  0  0  0  0  0  0  0  0  0  0
   -0.8576    1.4456    0.1562 C   0  0  0  0  0  0  0  0  0  0  0  0
   -1.7453    1.4761   -0.8499 C   0  0  0  0  0  0  0  0  0  0  0  0
   -3.2203    1.5485   -0.5509 C   0  0  0  0  0  0  0  0  0  0  0  0
   -4.3991    0.7404   -0.0334 C   0  0  0  0  0  0  0  0  0  0  0  0
   -4.2342   -0.4693    0.3197 O   0  0  0  0  0  0  0  0  0  0  0  0
   -5.6846    1.3371    0.0555 O   0  0  0  0  0  0  0  0  0  0  0  0
   -3.8700    2.6083   -1.4429 C   0  0  0  0  0  0  0  0  0  0  0  0
   -4.0334    3.9054   -0.6527 C   0  0  0  0  0  0  0  0  0  0  0  0
   -3.1365    4.9868   -1.2583 C   0  0  0  0  0  0  0  0  0  0  0  0
   -3.7687    5.1738   -2.6279 C   0  0  0  0  0  0  0  0  0  0  0  0
    0.9754    4.7042    0.6096 C   0  0  0  0  0  0  0  0  0  0  0  0
    0.6685    5.6513   -0.2421 C   0  0  0  0  0  0  0  0  0  0  0  0
   -0.2454    6.7746    0.1757 C   0  0  0  0  0  0  0  0  0  0  0  0
   -1.4859    6.7831   -0.7209 C   0  0  0  0  0  0  0  0  0  0  0  0
   -1.1061    6.3170   -2.1169 C   0  0  0  0  0  0  0  0  0  0  0  0
   -0.0630    7.2632   -2.6887 C   0  0  0  0  0  0  0  0  0  0  0  0
   -0.5426    4.8963   -2.0355 C   0  0  0  0  0  0  0  0  0  0  0  0
   -1.5554    4.0095   -1.5553 C   0  0  0  0  0  0  0  0  0  0  0  0
   -1.9902    4.5229   -0.3048 O   0  0  0  0  0  0  0  0  0  0  0  0
   -2.7097    3.9342   -2.3939 C   0  0  0  0  0  0  0  0  0  0  0  0
   -3.6368    3.0110   -1.8419 O   0  0  0  0  0  0  0  0  0  0  0  0
   -3.3608    5.3160   -2.4898 C   0  0  0  0  0  0  0  0  0  0  0  0
   -3.8298    5.7570   -1.1129 C   0  0  0  0  0  0  0  0  0  0  0  0
   -4.5542    5.2519   -3.4291 C   0  0  0  0  0  0  0  0  0  0  0  0
   -2.3360    6.3179   -3.0307 C   0  0  0  0  0  0  0  0  0  0  0  0
   -2.9477    7.7089   -3.0662 C   0  0  0  0  0  0  0  0  0  0  0  0
   -1.8969    4.9386    0.9008 C   0  0  0  0  0  0  0  0  0  0  0  0
   -2.5415    5.8418   -0.1380 C   0  0  0  0  0  0  0  0  0  0  0  0
   -3.6439    6.6592    0.5155 C   0  0  0  0  0  0  0  0  0  0  0  0
    1.8889    3.5819    0.1918 C   0  0  0  0  0  0  0  0  0  0  0  0
    1.3449    2.2730    0.7062 C   0  0  0  0  0  0  0  0  0  0  0  0
    0.6978   -0.6351   -0.8891 H   0  0  0  0  0  0  0  0  0  0  0  0
    0.6978   -0.4664    0.8500 H   0  0  0  0  0  0  0  0  0  0  0  0
    2.1245   -0.0487   -0.0683 H   0  0  0  0  0  0  0  0  0  0  0  0
    1.7409    1.7899   -1.9231 H   0  0  0  0  0  0  0  0  0  0  0  0
    0.1425    1.1865   -2.2897 H   0  0  0  0  0  0  0  0  0  0  0  0
    0.3514    2.8348   -1.7487 H   0  0  0  0  0  0  0  0  0  0  0  0
   -1.0557    0.5306    0.6743 H   0  0  0  0  0  0  0  0  0  0  0  0
   -0.9984    2.3325    0.7380 H   0  0  0  0  0  0  0  0  0  0  0  0
   -1.6335    0.5146   -1.3059 H   0  0  0  0  0  0  0  0  0  0  0  0
   -1.5083    2.3331   -1.4452 H   0  0  0  0  0  0  0  0  0  0  0  0
   -6.4601    0.8055    0.3960 H   0  0  0  0  0  0  0  0  0  0  0  0
   -3.2503    2.7856   -2.2970 H   0  0  0  0  0  0  0  0  0  0  0  0
   -4.8302    2.2635   -1.7656 H   0  0  0  0  0  0  0  0  0  0  0  0
   -5.0542    4.2232   -0.6951 H   0  0  0  0  0  0  0  0  0  0  0  0
   -3.7539    3.7397    0.3668 H   0  0  0  0  0  0  0  0  0  0  0  0
   -3.4510    6.1074   -3.0429 H   0  0  0  0  0  0  0  0  0  0  0  0
   -3.4657    4.3754   -3.2726 H   0  0  0  0  0  0  0  0  0  0  0  0
   -4.8344    5.1701   -2.5322 H   0  0  0  0  0  0  0  0  0  0  0  0
    1.0670    5.6274   -1.2348 H   0  0  0  0  0  0  0  0  0  0  0  0
    0.2697    7.7076    0.0808 H   0  0  0  0  0  0  0  0  0  0  0  0
   -0.5422    6.6330    1.1939 H   0  0  0  0  0  0  0  0  0  0  0  0
   -1.8823    7.7756   -0.7723 H   0  0  0  0  0  0  0  0  0  0  0  0
   -0.4672    8.2528   -2.7365 H   0  0  0  0  0  0  0  0  0  0  0  0
    0.8028    7.2617   -2.0600 H   0  0  0  0  0  0  0  0  0  0  0  0
    0.2096    6.9414   -3.6720 H   0  0  0  0  0  0  0  0  0  0  0  0
   -0.2248    4.5822   -3.0077 H   0  0  0  0  0  0  0  0  0  0  0  0
    0.2916    4.8812   -1.3656 H   0  0  0  0  0  0  0  0  0  0  0  0
   -1.1336    3.0294   -1.4754 H   0  0  0  0  0  0  0  0  0  0  0  0
   -2.3744    5.4369   -0.4352 H   0  0  0  0  0  0  0  0  0  0  0  0
   -2.4203    3.6076   -3.3709 H   0  0  0  0  0  0  0  0  0  0  0  0
   -3.9074    3.3161   -0.9288 H   0  0  0  0  0  0  0  0  0  0  0  0
   -4.2831    6.7237   -1.1832 H   0  0  0  0  0  0  0  0  0  0  0  0
   -4.5442    5.0545   -0.7375 H   0  0  0  0  0  0  0  0  0  0  0  0
   -2.9922    5.8033   -0.4487 H   0  0  0  0  0  0  0  0  0  0  0  0
   -4.2275    4.9442   -4.4004 H   0  0  0  0  0  0  0  0  0  0  0  0
   -5.2668    4.5480   -3.0529 H   0  0  0  0  0  0  0  0  0  0  0  0
   -5.0084    6.2185   -3.4952 H   0  0  0  0  0  0  0  0  0  0  0  0
   -2.0468    6.0357   -4.0214 H   0  0  0  0  0  0  0  0  0  0  0  0
   -3.8070    7.7045   -3.7037 H   0  0  0  0  0  0  0  0  0  0  0  0
   -3.2386    7.9960   -2.0773 H   0  0  0  0  0  0  0  0  0  0  0  0
   -1.4806    5.5367    1.6844 H   0  0  0  0  0  0  0  0  0  0  0  0
   -2.6352    4.2802    1.3085 H   0  0  0  0  0  0  0  0  0  0  0  0
   -4.3822    6.0008    0.9232 H   0  0  0  0  0  0  0  0  0  0  0  0
   -3.2277    7.2573    1.2991 H   0  0  0  0  0  0  0  0  0  0  0  0
   -4.0977    7.2950   -0.2157 H   0  0  0  0  0  0  0  0  0  0  0  0
    2.8941    3.8424   -0.0663 H   0  0  0  0  0  0  0  0  0  0  0  0
    2.2271    1.7004    0.9034 H   0  0  0  0  0  0  0  0  0  0  0  0
    0.7138    2.5064    1.5382 H   0  0  0  0  0  0  0  0  0  0  0  0
  1  2  1  0  0  0  0
  1 35  1  0  0  0  0
  1 36  1  0  0  0  0
  1 37  1  0  0  0  0
  2  3  1  0  0  0  0
  2  4  1  0  0  0  0
  2 34  1  0  0  0  0
  3 38  1  0  0  0  0
  3 39  1  0  0  0  0
  3 40  1  0  0  0  0
  4  5  1  0  0  0  0
  4 41  1  0  0  0  0
  4 42  1  0  0  0  0
  5  6  1  0  0  0  0
  5 43  1  0  0  0  0
  5 44  1  0  0  0  0
  6  7  1  0  0  0  0
  6 10  1  0  0  0  0
  6 33  1  0  0  0  0
  7  8  2  0  0  0  0
  7  9  1  0  0  0  0
  9 45  1  0  0  0  0
 10 11  1  0  0  0  0
 10 46  1  0  0  0  0
 10 47  1  0  0  0  0
 11 12  1  0  0  0  0
 11 48  1  0  0  0  0
 11 49  1  0  0  0  0
 12 13  1  0  0  0  0
 12 14  1  0  0  0  0
 12 31  1  0  0  0  0
 13 50  1  0  0  0  0
 13 51  1  0  0  0  0
 13 52  1  0  0  0  0
 14 15  2  0  0  0  0
 14 33  1  0  0  0  0
 15 16  1  0  0  0  0
 15 53  1  0  0  0  0
 16 17  1  0  0  0  0
 16 54  1  0  0  0  0
 16 55  1  0  0  0  0
 17 18  1  0  0  0  0
 17 31  1  0  0  0  0
 17 56  1  0  0  0  0
 18 19  1  0  0  0  0
 18 20  1  0  0  0  0
 18 28  1  0  0  0  0
 19 57  1  0  0  0  0
 19 58  1  0  0  0  0
 19 59  1  0  0  0  0
 20 21  1  0  0  0  0
 20 60  1  0  0  0  0
 20 61  1  0  0  0  0
 21 22  1  0  0  0  0
 21 23  1  0  0  0  0
 21 62  1  0  0  0  0
 22 63  1  0  0  0  0
 23 24  1  0  0  0  0
 23 25  1  0  0  0  0
 23 64  1  0  0  0  0
 24 65  1  0  0  0  0
 25 26  1  0  0  0  0
 25 27  1  0  0  0  0
 25 28  1  0  0  0  0
 26 66  1  0  0  0  0
 26 67  1  0  0  0  0
 26 68  1  0  0  0  0
 27 69  1  0  0  0  0
 27 70  1  0  0  0  0
 27 71  1  0  0  0  0
 28 29  1  0  0  0  0
 28 72  1  0  0  0  0
 29 30  1  0  0  0  0
 29 73  1  0  0  0  0
 29 74  1  0  0  0  0
 30 31  1  0  0  0  0
 30 75  1  0  0  0  0
 30 76  1  0  0  0  0
 31 32  1  0  0  0  0
 32 77  1  0  0  0  0
 32 78  1  0  0  0  0
 32 79  1  0  0  0  0
 33 34  1  0  0  0  0
 33 80  1  0  0  0  0
 34 81  1  0  0  0  0
 34 82  1  0  0  0  0
M  END
