
 OpenBabel03132514253D

 19 18  0  0  0  0  0  0  0  0999 V2000
    1.0194    0.0035   -0.0980 C   0  0  0  0  0  0  0  0  0  0  0  0
    0.5127   -0.6754   -1.3601 C   0  0  0  0  0  0  0  0  0  0  0  0
   -0.2180   -1.7117   -1.2747 O   0  0  0  0  0  0  0  0  0  0  0  0
    0.8678   -0.1332   -2.6795 N   0  0  0  0  0  0  0  0  0  0  0  0
    1.7129    1.0655   -2.7784 C   0  0  0  0  0  0  0  0  0  0  0  0
    2.9796    0.7303   -3.5488 C   0  0  0  0  0  0  0  0  0  0  0  0
    2.5423    0.1618   -5.2106 S   0  0  0  0  0  0  0  0  0  0  0  0
    0.9529    2.1628   -3.5056 C   0  0  0  0  0  0  0  0  0  0  0  0
    0.7227    3.2691   -2.9240 O   0  0  0  0  0  0  0  0  0  0  0  0
    0.5002    1.9517   -4.8349 O   0  0  0  0  0  0  0  0  0  0  0  0
    0.6627   -0.5270    0.7600 H   0  0  0  0  0  0  0  0  0  0  0  0
    0.6627    1.0118   -0.0677 H   0  0  0  0  0  0  0  0  0  0  0  0
    2.0894    0.0035   -0.0980 H   0  0  0  0  0  0  0  0  0  0  0  0
    0.5278   -0.5887   -3.5265 H   0  0  0  0  0  0  0  0  0  0  0  0
    1.9714    1.4017   -1.7960 H   0  0  0  0  0  0  0  0  0  0  0  0
    3.5948    1.6029   -3.6207 H   0  0  0  0  0  0  0  0  0  0  0  0
    3.5146   -0.0420   -3.0368 H   0  0  0  0  0  0  0  0  0  0  0  0
    1.7604   -0.9473   -5.1192 H   0  0  0  0  0  0  0  0  0  0  0  0
    0.0002    2.6735   -5.3134 H   0  0  0  0  0  0  0  0  0  0  0  0
  1  2  1  0  0  0  0
  1 11  1  0  0  0  0
  1 12  1  0  0  0  0
  1 13  1  0  0  0  0
  2  3  2  0  0  0  0
  2  4  1  0  0  0  0
  4  5  1  0  0  0  0
  4 14  1  0  0  0  0
  5  6  1  0  0  0  0
  5  8  1  0  0  0  0
  5 15  1  0  0  0  0
  6  7  1  0  0  0  0
  6 16  1  0  0  0  0
  6 17  1  0  0  0  0
  7 18  1  0  0  0  0
  8  9  2  0  0  0  0
  8 10  1  0  0  0  0
 10 19  1  0  0  0  0
M  END
