
 OpenBabel03132514253D

 81 85  0  0  0  0  0  0  0  0999 V2000
    0.9449   -0.0425    0.0718 C   0  0  0  0  0  0  0  0  0  0  0  0
    0.4382    0.8936    1.1569 C   0  0  0  0  0  0  0  0  0  0  0  0
   -1.0045    1.3363    0.9753 C   0  0  0  0  0  0  0  0  0  0  0  0
    0.5566    0.2089    2.4331 C   0  0  0  0  0  0  0  0  0  0  0  0
   -0.5836   -0.1907    3.0175 C   0  0  0  0  0  0  0  0  0  0  0  0
   -0.5401   -0.9056    4.3431 C   0  0  0  0  0  0  0  0  0  0  0  0
   -0.1783   -2.2259    5.0035 C   0  0  0  0  0  0  0  0  0  0  0  0
    0.2706   -3.1856    4.3015 O   0  0  0  0  0  0  0  0  0  0  0  0
   -0.3419   -2.3873    6.4048 O   0  0  0  0  0  0  0  0  0  0  0  0
   -1.5911   -0.3068    5.2802 C   0  0  0  0  0  0  0  0  0  0  0  0
   -0.9199    0.6881    6.2253 C   0  0  0  0  0  0  0  0  0  0  0  0
   -1.4321    2.0986    5.9272 C   0  0  0  0  0  0  0  0  0  0  0  0
   -2.8969    1.9780    6.3150 C   0  0  0  0  0  0  0  0  0  0  0  0
    1.1099    3.9273    2.6606 C   0  0  0  0  0  0  0  0  0  0  0  0
    0.1627    4.6065    3.2590 C   0  0  0  0  0  0  0  0  0  0  0  0
    0.3526    5.0762    4.6784 C   0  0  0  0  0  0  0  0  0  0  0  0
   -0.7374    4.4706    5.5662 C   0  0  0  0  0  0  0  0  0  0  0  0
   -2.0192    4.3190    4.7636 C   0  0  0  0  0  0  0  0  0  0  0  0
   -2.4599    5.6888    4.2739 C   0  0  0  0  0  0  0  0  0  0  0  0
   -1.7729    3.3991    3.5654 C   0  0  0  0  0  0  0  0  0  0  0  0
   -1.4132    2.0968    4.0314 C   0  0  0  0  0  0  0  0  0  0  0  0
   -2.4196    1.4621    4.8224 C   0  0  0  0  0  0  0  0  0  0  0  0
   -1.9734    0.1707    5.2094 O   0  0  0  0  0  0  0  0  0  0  0  0
   -2.6921    2.3036    6.0714 C   0  0  0  0  0  0  0  0  0  0  0  0
   -1.4331    2.3828    6.9194 C   0  0  0  0  0  0  0  0  0  0  0  0
   -3.8045    1.6619    6.8845 C   0  0  0  0  0  0  0  0  0  0  0  0
   -3.1159    3.7127    5.6453 C   0  0  0  0  0  0  0  0  0  0  0  0
   -3.3231    4.5804    6.8759 C   0  0  0  0  0  0  0  0  0  0  0  0
    0.9025    2.6254    5.2397 C   0  0  0  0  0  0  0  0  0  0  0  0
   -0.2826    3.0982    6.0658 C   0  0  0  0  0  0  0  0  0  0  0  0
    0.1265    3.2006    7.5261 C   0  0  0  0  0  0  0  0  0  0  0  0
    0.9197    3.4581    1.2420 C   0  0  0  0  0  0  0  0  0  0  0  0
    1.4150    2.0399    1.1109 C   0  0  0  0  0  0  0  0  0  0  0  0
    0.5882    0.2896   -0.8808 H   0  0  0  0  0  0  0  0  0  0  0  0
    0.5882   -1.0335    0.2606 H   0  0  0  0  0  0  0  0  0  0  0  0
    2.0149   -0.0425    0.0718 H   0  0  0  0  0  0  0  0  0  0  0  0
   -1.1044    1.8530    0.0437 H   0  0  0  0  0  0  0  0  0  0  0  0
   -1.6438    0.4783    0.9777 H   0  0  0  0  0  0  0  0  0  0  0  0
   -1.2807    1.9892    1.7768 H   0  0  0  0  0  0  0  0  0  0  0  0
    1.0892   -0.6934    2.2164 H   0  0  0  0  0  0  0  0  0  0  0  0
    1.0514    0.8726    3.1110 H   0  0  0  0  0  0  0  0  0  0  0  0
   -0.9550   -0.9376    2.3472 H   0  0  0  0  0  0  0  0  0  0  0  0
   -1.1821    0.6850    3.1582 H   0  0  0  0  0  0  0  0  0  0  0  0
   -0.1039   -3.2559    6.8392 H   0  0  0  0  0  0  0  0  0  0  0  0
   -2.3389    0.1965    4.7036 H   0  0  0  0  0  0  0  0  0  0  0  0
   -2.0479   -1.0885    5.8504 H   0  0  0  0  0  0  0  0  0  0  0  0
   -1.1515    0.4307    7.2378 H   0  0  0  0  0  0  0  0  0  0  0  0
    0.1401    0.6560    6.0832 H   0  0  0  0  0  0  0  0  0  0  0  0
   -3.3093    2.9547    6.4591 H   0  0  0  0  0  0  0  0  0  0  0  0
   -3.4320    1.4763    5.5360 H   0  0  0  0  0  0  0  0  0  0  0  0
   -2.9805    1.4180    7.2229 H   0  0  0  0  0  0  0  0  0  0  0  0
   -0.7463    4.8279    2.7396 H   0  0  0  0  0  0  0  0  0  0  0  0
    0.2882    6.1437    4.7126 H   0  0  0  0  0  0  0  0  0  0  0  0
    1.3137    4.7654    5.0314 H   0  0  0  0  0  0  0  0  0  0  0  0
   -0.9147    5.1140    6.4025 H   0  0  0  0  0  0  0  0  0  0  0  0
   -2.6330    6.3291    5.1136 H   0  0  0  0  0  0  0  0  0  0  0  0
   -1.6945    6.1100    3.6561 H   0  0  0  0  0  0  0  0  0  0  0  0
   -3.3624    5.5918    3.7074 H   0  0  0  0  0  0  0  0  0  0  0  0
   -2.6638    3.3340    2.9764 H   0  0  0  0  0  0  0  0  0  0  0  0
   -0.9790    3.7962    2.9681 H   0  0  0  0  0  0  0  0  0  0  0  0
   -0.5573    2.2199    4.6616 H   0  0  0  0  0  0  0  0  0  0  0  0
   -1.2145    1.4786    3.1810 H   0  0  0  0  0  0  0  0  0  0  0  0
   -3.3190    1.3716    4.2500 H   0  0  0  0  0  0  0  0  0  0  0  0
   -1.1328    0.2549    5.7445 H   0  0  0  0  0  0  0  0  0  0  0  0
   -1.6265    2.9728    7.7908 H   0  0  0  0  0  0  0  0  0  0  0  0
   -1.1390    1.3971    7.2141 H   0  0  0  0  0  0  0  0  0  0  0  0
   -0.6475    2.8341    6.3502 H   0  0  0  0  0  0  0  0  0  0  0  0
   -4.6935    1.6068    6.2915 H   0  0  0  0  0  0  0  0  0  0  0  0
   -3.5093    0.6759    7.1770 H   0  0  0  0  0  0  0  0  0  0  0  0
   -3.9939    2.2512    7.7572 H   0  0  0  0  0  0  0  0  0  0  0  0
   -4.0314    3.6604    5.0939 H   0  0  0  0  0  0  0  0  0  0  0  0
   -4.0881    4.1523    7.4895 H   0  0  0  0  0  0  0  0  0  0  0  0
   -2.4100    4.6358    7.4311 H   0  0  0  0  0  0  0  0  0  0  0  0
    1.7065    3.3246    5.3366 H   0  0  0  0  0  0  0  0  0  0  0  0
    1.2206    1.6654    5.5892 H   0  0  0  0  0  0  0  0  0  0  0  0
    0.4446    2.2406    7.8756 H   0  0  0  0  0  0  0  0  0  0  0  0
    0.9306    3.8999    7.6231 H   0  0  0  0  0  0  0  0  0  0  0  0
   -0.7076    3.5334    8.1077 H   0  0  0  0  0  0  0  0  0  0  0  0
    0.8177    4.2118    0.4893 H   0  0  0  0  0  0  0  0  0  0  0  0
    1.7914    2.0023    0.1099 H   0  0  0  0  0  0  0  0  0  0  0  0
    2.1141    1.8822    1.9054 H   0  0  0  0  0  0  0  0  0  0  0  0
  1  2  1  0  0  0  0
  1 34  1  0  0  0  0
  1 35  1  0  0  0  0
  1 36  1  0  0  0  0
  2  3  1  0  0  0  0
  2  4  1  0  0  0  0
  2 33  1  0  0  0  0
  3 37  1  0  0  0  0
  3 38  1  0  0  0  0
  3 39  1  0  0  0  0
  4  5  1  0  0  0  0
  4 40  1  0  0  0  0
  4 41  1  0  0  0  0
  5  6  1  0  0  0  0
  5 42  1  0  0  0  0
  5 43  1  0  0  0  0
  6  7  1  0  0  0  0
  6 10  1  0  0  0  0
  6 32  1  0  0  0  0
  7  8  2  0  0  0  0
  7  9  1  0  0  0  0
  9 44  1  0  0  0  0
 10 11  1  0  0  0  0
 10 45  1  0  0  0  0
 10 46  1  0  0  0  0
 11 12  1  0  0  0  0
 11 47  1  0  0  0  0
 11 48  1  0  0  0  0
 12 13  1  0  0  0  0
 12 14  1  0  0  0  0
 12 30  1  0  0  0  0
 13 49  1  0  0  0  0
 13 50  1  0  0  0  0
 13 51  1  0  0  0  0
 14 15  2  0  0  0  0
 14 32  1  0  0  0  0
 15 16  1  0  0  0  0
 15 52  1  0  0  0  0
 16 17  1  0  0  0  0
 16 53  1  0  0  0  0
 16 54  1  0  0  0  0
 17 18  1  0  0  0  0
 17 30  1  0  0  0  0
 17 55  1  0  0  0  0
 18 19  1  0  0  0  0
 18 20  1  0  0  0  0
 18 27  1  0  0  0  0
 19 56  1  0  0  0  0
 19 57  1  0  0  0  0
 19 58  1  0  0  0  0
 20 21  1  0  0  0  0
 20 59  1  0  0  0  0
 20 60  1  0  0  0  0
 21 22  1  0  0  0  0
 21 61  1  0  0  0  0
 21 62  1  0  0  0  0
 22 23  1  0  0  0  0
 22 24  1  0  0  0  0
 22 63  1  0  0  0  0
 23 64  1  0  0  0  0
 24 25  1  0  0  0  0
 24 26  1  0  0  0  0
 24 27  1  0  0  0  0
 25 65  1  0  0  0  0
 25 66  1  0  0  0  0
 25 67  1  0  0  0  0
 26 68  1  0  0  0  0
 26 69  1  0  0  0  0
 26 70  1  0  0  0  0
 27 28  1  0  0  0  0
 27 71  1  0  0  0  0
 28 29  1  0  0  0  0
 28 72  1  0  0  0  0
 28 73  1  0  0  0  0
 29 30  1  0  0  0  0
 29 74  1  0  0  0  0
 29 75  1  0  0  0  0
 30 31  1  0  0  0  0
 31 76  1  0  0  0  0
 31 77  1  0  0  0  0
 31 78  1  0  0  0  0
 32 33  1  0  0  0  0
 32 79  1  0  0  0  0
 33 80  1  0  0  0  0
 33 81  1  0  0  0  0
M  END
