
 OpenBabel03132514253D

 41 43  0  0  0  0  0  0  0  0999 V2000
    0.9266   -0.0656    0.0175 C   0  0  0  0  0  0  0  0  0  0  0  0
    0.4199   -1.4953   -0.0813 C   0  0  0  0  0  0  0  0  0  0  0  0
   -0.9387   -1.7404   -0.3424 C   0  0  0  0  0  0  0  0  0  0  0  0
   -1.4151   -3.0367   -0.4276 C   0  0  0  0  0  0  0  0  0  0  0  0
   -2.6474   -3.2519   -0.6524 O   0  0  0  0  0  0  0  0  0  0  0  0
   -0.5295   -4.1111   -0.2644 C   0  0  0  0  0  0  0  0  0  0  0  0
   -0.9829   -5.4420   -0.3514 C   0  0  0  0  0  0  0  0  0  0  0  0
   -2.3526   -5.7095   -0.6136 O   0  0  0  0  0  0  0  0  0  0  0  0
   -0.1117   -6.4680   -0.1849 C   0  0  0  0  0  0  0  0  0  0  0  0
    1.2492   -6.2235    0.0756 C   0  0  0  0  0  0  0  0  0  0  0  0
    2.1409   -7.3154    0.2461 O   0  0  0  0  0  0  0  0  0  0  0  0
    1.7262   -4.9259    0.1671 C   0  0  0  0  0  0  0  0  0  0  0  0
    3.1976   -4.6687    0.4487 C   0  0  0  0  0  0  0  0  0  0  0  0
    3.5495   -5.3602    1.7679 C   0  0  0  0  0  0  0  0  0  0  0  0
    3.2809   -6.7596    1.6581 C   0  0  0  0  0  0  0  0  0  0  0  0
    4.0405   -7.4213    0.6449 N   0  0  0  0  0  0  0  0  0  0  0  0
    5.4749   -7.2544    0.9201 C   0  0  0  0  0  0  0  0  0  0  0  0
    3.7085   -6.8132   -0.7198 C   0  0  0  0  0  0  0  0  0  0  0  0
    4.0037   -5.3104   -0.6854 C   0  0  0  0  0  0  0  0  0  0  0  0
    3.6391   -4.7219   -1.9252 O   0  0  0  0  0  0  0  0  0  0  0  0
    0.8408   -3.8517   -0.0022 C   0  0  0  0  0  0  0  0  0  0  0  0
    1.2932   -2.5209    0.0846 O   0  0  0  0  0  0  0  0  0  0  0  0
    0.5699    0.3774    0.9238 H   0  0  0  0  0  0  0  0  0  0  0  0
    0.5699    0.4978   -0.8193 H   0  0  0  0  0  0  0  0  0  0  0  0
    1.9966   -0.0656    0.0175 H   0  0  0  0  0  0  0  0  0  0  0  0
   -1.6102   -0.9182   -0.4763 H   0  0  0  0  0  0  0  0  0  0  0  0
   -2.9951   -4.9531   -0.7365 H   0  0  0  0  0  0  0  0  0  0  0  0
   -0.4638   -7.4762   -0.2524 H   0  0  0  0  0  0  0  0  0  0  0  0
    1.8008   -8.2536    0.1808 H   0  0  0  0  0  0  0  0  0  0  0  0
    3.4110   -3.6222    0.5126 H   0  0  0  0  0  0  0  0  0  0  0  0
    4.5871   -5.2117    1.9830 H   0  0  0  0  0  0  0  0  0  0  0  0
    2.9589   -4.9444    2.5573 H   0  0  0  0  0  0  0  0  0  0  0  0
    2.2511   -6.8557    1.3840 H   0  0  0  0  0  0  0  0  0  0  0  0
    3.5027   -7.2193    2.5985 H   0  0  0  0  0  0  0  0  0  0  0  0
    5.7182   -6.2124    0.9249 H   0  0  0  0  0  0  0  0  0  0  0  0
    5.7068   -7.6792    1.8743 H   0  0  0  0  0  0  0  0  0  0  0  0
    6.0437   -7.7499    0.1613 H   0  0  0  0  0  0  0  0  0  0  0  0
    2.6740   -6.9719   -0.9425 H   0  0  0  0  0  0  0  0  0  0  0  0
    4.3074   -7.2786   -1.4745 H   0  0  0  0  0  0  0  0  0  0  0  0
    5.0485   -5.1540   -0.5158 H   0  0  0  0  0  0  0  0  0  0  0  0
    2.6630   -4.8656   -2.0881 H   0  0  0  0  0  0  0  0  0  0  0  0
  1  2  1  0  0  0  0
  1 23  1  0  0  0  0
  1 24  1  0  0  0  0
  1 25  1  0  0  0  0
  2  3  2  0  0  0  0
  2 22  1  0  0  0  0
  3  4  1  0  0  0  0
  3 26  1  0  0  0  0
  4  5  2  0  0  0  0
  4  6  1  0  0  0  0
  6  7  1  0  0  0  0
  6 21  2  0  0  0  0
  7  8  1  0  0  0  0
  7  9  2  0  0  0  0
  8 27  1  0  0  0  0
  9 10  1  0  0  0  0
  9 28  1  0  0  0  0
 10 11  1  0  0  0  0
 10 12  2  0  0  0  0
 11 29  1  0  0  0  0
 12 13  1  0  0  0  0
 12 21  1  0  0  0  0
 13 14  1  0  0  0  0
 13 19  1  0  0  0  0
 13 30  1  0  0  0  0
 14 15  1  0  0  0  0
 14 31  1  0  0  0  0
 14 32  1  0  0  0  0
 15 16  1  0  0  0  0
 15 33  1  0  0  0  0
 15 34  1  0  0  0  0
 16 17  1  0  0  0  0
 16 18  1  0  0  0  0
 17 35  1  0  0  0  0
 17 36  1  0  0  0  0
 17 37  1  0  0  0  0
 18 19  1  0  0  0  0
 18 38  1  0  0  0  0
 18 39  1  0  0  0  0
 19 20  1  0  0  0  0
 19 40  1  0  0  0  0
 20 41  1  0  0  0  0
 21 22  1  0  0  0  0
M  END
