
 OpenBabel03132514253D

 60 63  0  0  0  0  0  0  0  0999 V2000
    1.0858   -0.0266    0.0440 C   0  0  0  0  0  0  0  0  0  0  0  0
    0.5791    0.2997   -1.3515 C   0  0  0  0  0  0  0  0  0  0  0  0
    1.0858   -0.7456   -2.3318 C   0  0  0  0  0  0  0  0  0  0  0  0
   -0.9409    0.2997   -1.3514 C   0  0  0  0  0  0  0  0  0  0  0  0
   -1.4475    1.3450   -0.3711 C   0  0  0  0  0  0  0  0  0  0  0  0
   -0.9576    2.6716   -0.7726 N   0  0  0  0  0  0  0  0  0  0  0  0
   -1.9128    3.7410   -1.0962 C   0  0  0  0  0  0  0  0  0  0  0  0
   -3.0043    3.9622   -0.2796 C   0  0  0  0  0  0  0  0  0  0  0  0
   -3.9249    4.9573   -0.6177 C   0  0  0  0  0  0  0  0  0  0  0  0
   -3.6804    5.6973   -1.7676 C   0  0  0  0  0  0  0  0  0  0  0  0
   -4.6438    6.7911   -2.1987 C   0  0  0  0  0  0  0  0  0  0  0  0
   -5.3199    6.9187   -3.3498 C   0  0  0  0  0  0  0  0  0  0  0  0
   -6.0669    8.0809   -3.3878 N   0  0  0  0  0  0  0  0  0  0  0  0
   -5.8051    8.6195   -2.2382 C   0  0  0  0  0  0  0  0  0  0  0  0
   -6.2941    9.7964   -1.8078 C   0  0  0  0  0  0  0  0  0  0  0  0
   -5.8021   10.1513   -0.5082 C   0  0  0  0  0  0  0  0  0  0  0  0
   -4.9534    9.3632    0.1940 C   0  0  0  0  0  0  0  0  0  0  0  0
   -4.5012    9.8244    1.5145 N   0  0  0  0  0  0  0  0  0  0  0  0
   -3.5799    8.9965    2.3063 C   0  0  0  0  0  0  0  0  0  0  0  0
   -2.2272    8.6522    1.7395 C   0  0  0  0  0  0  0  0  0  0  0  0
   -2.4009    7.7515    0.5213 C   0  0  0  0  0  0  0  0  0  0  0  0
   -3.1359    6.5323    0.8662 N   0  0  0  0  0  0  0  0  0  0  0  0
   -3.2917    5.7014   -0.3319 C   0  0  0  0  0  0  0  0  0  0  0  0
   -4.4550    6.8659    1.4158 C   0  0  0  0  0  0  0  0  0  0  0  0
   -4.3399    7.7409    2.6623 C   0  0  0  0  0  0  0  0  0  0  0  0
   -4.5325    8.2526   -0.2306 N   0  0  0  0  0  0  0  0  0  0  0  0
   -4.9690    7.8935   -1.4635 N   0  0  0  0  0  0  0  0  0  0  0  0
   -2.5546    5.4270   -2.5112 C   0  0  0  0  0  0  0  0  0  0  0  0
   -1.6819    4.4623   -2.2043 N   0  0  0  0  0  0  0  0  0  0  0  0
    0.7291   -0.9922    0.3362 H   0  0  0  0  0  0  0  0  0  0  0  0
    0.7291    0.7092    0.7341 H   0  0  0  0  0  0  0  0  0  0  0  0
    2.1558   -0.0266    0.0440 H   0  0  0  0  0  0  0  0  0  0  0  0
    0.9358    1.2653   -1.6437 H   0  0  0  0  0  0  0  0  0  0  0  0
    0.7291   -1.7111   -2.0396 H   0  0  0  0  0  0  0  0  0  0  0  0
    0.7291   -0.5158   -3.3141 H   0  0  0  0  0  0  0  0  0  0  0  0
    2.1558   -0.7456   -2.3318 H   0  0  0  0  0  0  0  0  0  0  0  0
   -1.2975    0.5295   -2.3337 H   0  0  0  0  0  0  0  0  0  0  0  0
   -1.2975   -0.6658   -1.0592 H   0  0  0  0  0  0  0  0  0  0  0  0
   -2.5175    1.3450   -0.3711 H   0  0  0  0  0  0  0  0  0  0  0  0
   -1.0909    1.1153    0.6112 H   0  0  0  0  0  0  0  0  0  0  0  0
    0.0453    2.8500   -0.8265 H   0  0  0  0  0  0  0  0  0  0  0  0
   -3.1438    3.3764    0.6049 H   0  0  0  0  0  0  0  0  0  0  0  0
   -4.7875    5.1427   -0.0124 H   0  0  0  0  0  0  0  0  0  0  0  0
   -5.2851    6.2043   -4.1457 H   0  0  0  0  0  0  0  0  0  0  0  0
   -6.9741   10.4001   -2.3718 H   0  0  0  0  0  0  0  0  0  0  0  0
   -6.1187   11.0772   -0.0753 H   0  0  0  0  0  0  0  0  0  0  0  0
   -4.8265   10.7188    1.8813 H   0  0  0  0  0  0  0  0  0  0  0  0
   -3.2956    9.6055    3.1388 H   0  0  0  0  0  0  0  0  0  0  0  0
   -1.6491    8.1416    2.4811 H   0  0  0  0  0  0  0  0  0  0  0  0
   -1.7226    9.5502    1.4500 H   0  0  0  0  0  0  0  0  0  0  0  0
   -1.4315    7.4736    0.1636 H   0  0  0  0  0  0  0  0  0  0  0  0
   -2.9421    8.2841   -0.2325 H   0  0  0  0  0  0  0  0  0  0  0  0
   -3.8064    4.7990   -0.0756 H   0  0  0  0  0  0  0  0  0  0  0  0
   -3.8556    6.2373   -1.0666 H   0  0  0  0  0  0  0  0  0  0  0  0
   -2.3269    5.4617   -0.7276 H   0  0  0  0  0  0  0  0  0  0  0  0
   -4.9988    7.4114    0.6731 H   0  0  0  0  0  0  0  0  0  0  0  0
   -4.9631    5.9601    1.6731 H   0  0  0  0  0  0  0  0  0  0  0  0
   -3.8230    7.2091    3.4336 H   0  0  0  0  0  0  0  0  0  0  0  0
   -5.3176    7.9991    3.0120 H   0  0  0  0  0  0  0  0  0  0  0  0
   -2.3678    6.0208   -3.3815 H   0  0  0  0  0  0  0  0  0  0  0  0
  1  2  1  0  0  0  0
  1 30  1  0  0  0  0
  1 31  1  0  0  0  0
  1 32  1  0  0  0  0
  2  3  1  0  0  0  0
  2  4  1  0  0  0  0
  2 33  1  0  0  0  0
  3 34  1  0  0  0  0
  3 35  1  0  0  0  0
  3 36  1  0  0  0  0
  4  5  1  0  0  0  0
  4 37  1  0  0  0  0
  4 38  1  0  0  0  0
  5  6  1  0  0  0  0
  5 39  1  0  0  0  0
  5 40  1  0  0  0  0
  6  7  1  0  0  0  0
  6 41  1  0  0  0  0
  7  8  1  0  0  0  0
  7 29  2  0  0  0  0
  8  9  2  0  0  0  0
  8 42  1  0  0  0  0
  9 10  1  0  0  0  0
  9 43  1  0  0  0  0
 10 11  1  0  0  0  0
 10 28  2  0  0  0  0
 11 12  2  0  0  0  0
 11 27  1  0  0  0  0
 12 13  1  0  0  0  0
 12 44  1  0  0  0  0
 13 14  2  0  0  0  0
 14 15  1  0  0  0  0
 14 27  1  0  0  0  0
 15 16  2  0  0  0  0
 15 45  1  0  0  0  0
 16 17  1  0  0  0  0
 16 46  1  0  0  0  0
 17 18  1  0  0  0  0
 17 26  2  0  0  0  0
 18 19  1  0  0  0  0
 18 47  1  0  0  0  0
 19 20  1  0  0  0  0
 19 25  1  0  0  0  0
 19 48  1  0  0  0  0
 20 21  1  0  0  0  0
 20 49  1  0  0  0  0
 20 50  1  0  0  0  0
 21 22  1  0  0  0  0
 21 51  1  0  0  0  0
 21 52  1  0  0  0  0
 22 23  1  0  0  0  0
 22 24  1  0  0  0  0
 23 53  1  0  0  0  0
 23 54  1  0  0  0  0
 23 55  1  0  0  0  0
 24 25  1  0  0  0  0
 24 56  1  0  0  0  0
 24 57  1  0  0  0  0
 25 58  1  0  0  0  0
 25 59  1  0  0  0  0
 26 27  1  0  0  0  0
 28 29  1  0  0  0  0
 28 60  1  0  0  0  0
M  END
