
 OpenBabel03132514253D

 51 54  0  0  0  0  0  0  0  0999 V2000
    1.0210    0.0162    0.0964 C   0  0  0  0  0  0  0  0  0  0  0  0
    0.5477    1.1184   -0.6636 O   0  0  0  0  0  0  0  0  0  0  0  0
    1.0210    2.3276   -0.0891 C   0  0  0  0  0  0  0  0  0  0  0  0
    0.5143    2.4423    1.3394 C   0  0  0  0  0  0  0  0  0  0  0  0
    1.3402    2.5196    2.3022 O   0  0  0  0  0  0  0  0  0  0  0  0
   -0.9309    2.4638    1.6071 N   0  0  0  0  0  0  0  0  0  0  0  0
   -1.8862    2.3744    0.4934 C   0  0  0  0  0  0  0  0  0  0  0  0
   -1.6481    1.4111   -0.5085 C   0  0  0  0  0  0  0  0  0  0  0  0
   -2.5130    1.2884   -1.5657 C   0  0  0  0  0  0  0  0  0  0  0  0
   -3.6175    2.1559   -1.5911 C   0  0  0  0  0  0  0  0  0  0  0  0
   -4.6348    2.2846   -2.4801 N   0  0  0  0  0  0  0  0  0  0  0  0
   -5.5189    3.2626   -2.1004 N   0  0  0  0  0  0  0  0  0  0  0  0
   -5.0533    3.7585   -0.9699 C   0  0  0  0  0  0  0  0  0  0  0  0
   -5.7189    4.8773   -0.1852 C   0  0  0  0  0  0  0  0  0  0  0  0
   -7.0526    4.6977    0.1427 C   0  0  0  0  0  0  0  0  0  0  0  0
   -7.7299    5.8971    0.4663 C   0  0  0  0  0  0  0  0  0  0  0  0
   -7.1336    7.0294    0.7924 C   0  0  0  0  0  0  0  0  0  0  0  0
   -5.8000    7.1192    0.5047 C   0  0  0  0  0  0  0  0  0  0  0  0
   -4.9472    8.7021    0.7126 S   0  0  0  0  0  0  0  0  0  0  0  0
   -5.6959    9.9123   -0.3231 N   0  0  0  0  0  0  0  0  0  0  0  0
   -5.0479    9.1478    2.1732 O   0  0  0  0  0  0  0  0  0  0  0  0
   -3.4744    8.5424    0.3283 O   0  0  0  0  0  0  0  0  0  0  0  0
   -5.0978    6.0250    0.0599 C   0  0  0  0  0  0  0  0  0  0  0  0
   -3.8480    3.1113   -0.5800 C   0  0  0  0  0  0  0  0  0  0  0  0
   -2.9614    3.2347    0.4926 C   0  0  0  0  0  0  0  0  0  0  0  0
    2.5410    2.3276   -0.0891 C   0  0  0  0  0  0  0  0  0  0  0  0
    3.2205    1.1211   -0.1220 C   0  0  0  0  0  0  0  0  0  0  0  0
    4.5995    1.2315    0.1747 C   0  0  0  0  0  0  0  0  0  0  0  0
    5.2866    2.3585    0.1337 C   0  0  0  0  0  0  0  0  0  0  0  0
    4.5571    3.5145    0.0987 C   0  0  0  0  0  0  0  0  0  0  0  0
    3.1924    3.4843   -0.0576 C   0  0  0  0  0  0  0  0  0  0  0  0
    0.6643   -0.8950   -0.3365 H   0  0  0  0  0  0  0  0  0  0  0  0
    0.6643    0.0969    1.1020 H   0  0  0  0  0  0  0  0  0  0  0  0
    2.0910    0.0162    0.0964 H   0  0  0  0  0  0  0  0  0  0  0  0
    0.6643    3.1581   -0.6618 H   0  0  0  0  0  0  0  0  0  0  0  0
   -1.2709    2.5407    2.5657 H   0  0  0  0  0  0  0  0  0  0  0  0
   -0.7905    0.7744   -0.4437 H   0  0  0  0  0  0  0  0  0  0  0  0
   -2.3537    0.5640   -2.3369 H   0  0  0  0  0  0  0  0  0  0  0  0
   -4.7304    1.7233   -3.3264 H   0  0  0  0  0  0  0  0  0  0  0  0
   -7.5277    3.7389    0.1505 H   0  0  0  0  0  0  0  0  0  0  0  0
   -8.7997    5.8859    0.4454 H   0  0  0  0  0  0  0  0  0  0  0  0
   -7.6655    7.8333    1.2569 H   0  0  0  0  0  0  0  0  0  0  0  0
   -5.2153   10.8043   -0.2059 H   0  0  0  0  0  0  0  0  0  0  0  0
   -5.6288    9.6152   -1.2965 H   0  0  0  0  0  0  0  0  0  0  0  0
   -4.0410    6.0986   -0.0903 H   0  0  0  0  0  0  0  0  0  0  0  0
   -3.1094    3.9561    1.2689 H   0  0  0  0  0  0  0  0  0  0  0  0
    2.7455    0.1900   -0.3510 H   0  0  0  0  0  0  0  0  0  0  0  0
    5.1221    0.3397    0.4516 H   0  0  0  0  0  0  0  0  0  0  0  0
    6.3565    2.3667    0.1281 H   0  0  0  0  0  0  0  0  0  0  0  0
    5.0563    4.4560    0.1944 H   0  0  0  0  0  0  0  0  0  0  0  0
    2.6495    4.4013   -0.1548 H   0  0  0  0  0  0  0  0  0  0  0  0
  1  2  1  0  0  0  0
  1 32  1  0  0  0  0
  1 33  1  0  0  0  0
  1 34  1  0  0  0  0
  2  3  1  0  0  0  0
  3  4  1  0  0  0  0
  3 26  1  0  0  0  0
  3 35  1  0  0  0  0
  4  5  2  0  0  0  0
  4  6  1  0  0  0  0
  6  7  1  0  0  0  0
  6 36  1  0  0  0  0
  7  8  1  0  0  0  0
  7 25  2  0  0  0  0
  8  9  2  0  0  0  0
  8 37  1  0  0  0  0
  9 10  1  0  0  0  0
  9 38  1  0  0  0  0
 10 11  1  0  0  0  0
 10 24  2  0  0  0  0
 11 12  1  0  0  0  0
 11 39  1  0  0  0  0
 12 13  2  0  0  0  0
 13 14  1  0  0  0  0
 13 24  1  0  0  0  0
 14 15  1  0  0  0  0
 14 23  2  0  0  0  0
 15 16  2  0  0  0  0
 15 40  1  0  0  0  0
 16 17  1  0  0  0  0
 16 41  1  0  0  0  0
 17 18  2  0  0  0  0
 17 42  1  0  0  0  0
 18 19  1  0  0  0  0
 18 23  1  0  0  0  0
 19 20  1  0  0  0  0
 19 21  2  0  0  0  0
 19 22  2  0  0  0  0
 20 43  1  0  0  0  0
 20 44  1  0  0  0  0
 23 45  1  0  0  0  0
 24 25  1  0  0  0  0
 25 46  1  0  0  0  0
 26 27  1  0  0  0  0
 26 31  2  0  0  0  0
 27 28  2  0  0  0  0
 27 47  1  0  0  0  0
 28 29  1  0  0  0  0
 28 48  1  0  0  0  0
 29 30  2  0  0  0  0
 29 49  1  0  0  0  0
 30 31  1  0  0  0  0
 30 50  1  0  0  0  0
 31 51  1  0  0  0  0
M  END
