
 OpenBabel03132514253D

 57 60  0  0  0  0  0  0  0  0999 V2000
    0.9522   -0.0867    0.0142 C   0  0  0  0  0  0  0  0  0  0  0  0
    0.4789    0.3274   -1.2590 O   0  0  0  0  0  0  0  0  0  0  0  0
    0.8219    1.6107   -1.7610 C   0  0  0  0  0  0  0  0  0  0  0  0
    2.1587    1.9595   -1.6093 C   0  0  0  0  0  0  0  0  0  0  0  0
    2.5987    3.1878   -2.0415 C   0  0  0  0  0  0  0  0  0  0  0  0
    1.7293    4.0870   -2.6572 C   0  0  0  0  0  0  0  0  0  0  0  0
    0.3794    3.7395   -2.7985 C   0  0  0  0  0  0  0  0  0  0  0  0
   -0.5293    4.6464   -3.4052 O   0  0  0  0  0  0  0  0  0  0  0  0
   -1.8971    4.2923   -3.5475 C   0  0  0  0  0  0  0  0  0  0  0  0
   -0.0668    2.5080   -2.3445 C   0  0  0  0  0  0  0  0  0  0  0  0
   -1.4374    2.1609   -2.4757 O   0  0  0  0  0  0  0  0  0  0  0  0
   -1.8981    0.9003   -2.0118 C   0  0  0  0  0  0  0  0  0  0  0  0
    2.2204    5.3660   -3.2015 C   0  0  0  0  0  0  0  0  0  0  0  0
    3.2026    5.3970   -4.1879 C   0  0  0  0  0  0  0  0  0  0  0  0
    3.6908    6.5921   -4.6628 C   0  0  0  0  0  0  0  0  0  0  0  0
    3.1847    7.7902   -4.1736 C   0  0  0  0  0  0  0  0  0  0  0  0
    2.1853    7.7786   -3.2075 C   0  0  0  0  0  0  0  0  0  0  0  0
    1.7010    6.5742   -2.7188 C   0  0  0  0  0  0  0  0  0  0  0  0
    0.6807    6.5659   -1.7311 O   0  0  0  0  0  0  0  0  0  0  0  0
    0.1859    5.3322   -1.2318 C   0  0  0  0  0  0  0  0  0  0  0  0
    1.6585    9.0036   -2.7194 O   0  0  0  0  0  0  0  0  0  0  0  0
    0.6375    8.9944   -1.7325 C   0  0  0  0  0  0  0  0  0  0  0  0
    3.6882    9.0256   -4.6602 O   0  0  0  0  0  0  0  0  0  0  0  0
    3.7172    4.0815   -4.7351 C   0  0  0  0  0  0  0  0  0  0  0  0
    5.0820    3.7678   -4.1245 C   0  0  0  0  0  0  0  0  0  0  0  0
    5.7599    5.0744   -3.7455 C   0  0  0  0  0  0  0  0  0  0  0  0
    4.9276    2.9123   -2.8686 C   0  0  0  0  0  0  0  0  0  0  0  0
    4.2778    1.5938   -3.2556 C   0  0  0  0  0  0  0  0  0  0  0  0
    4.0405    3.6107   -1.8400 C   0  0  0  0  0  0  0  0  0  0  0  0
    0.5955   -1.0735    0.2236 H   0  0  0  0  0  0  0  0  0  0  0  0
    0.5955    0.5881    0.7641 H   0  0  0  0  0  0  0  0  0  0  0  0
    2.0222   -0.0867    0.0142 H   0  0  0  0  0  0  0  0  0  0  0  0
    2.8439    1.2734   -1.1569 H   0  0  0  0  0  0  0  0  0  0  0  0
   -1.9764    3.4083   -4.1452 H   0  0  0  0  0  0  0  0  0  0  0  0
   -2.3205    4.1093   -2.5821 H   0  0  0  0  0  0  0  0  0  0  0  0
   -2.4251    5.0926   -4.0226 H   0  0  0  0  0  0  0  0  0  0  0  0
   -1.3828    0.1192   -2.5307 H   0  0  0  0  0  0  0  0  0  0  0  0
   -1.7094    0.8159   -0.9620 H   0  0  0  0  0  0  0  0  0  0  0  0
   -2.9493    0.8159   -2.1932 H   0  0  0  0  0  0  0  0  0  0  0  0
    4.4590    6.5991   -5.4077 H   0  0  0  0  0  0  0  0  0  0  0  0
   -0.2289    4.7622   -2.0368 H   0  0  0  0  0  0  0  0  0  0  0  0
    0.9862    4.7830   -0.7813 H   0  0  0  0  0  0  0  0  0  0  0  0
   -0.5724    5.5215   -0.5010 H   0  0  0  0  0  0  0  0  0  0  0  0
    0.9949    8.4985   -0.8543 H   0  0  0  0  0  0  0  0  0  0  0  0
    0.3677   10.0008   -1.4890 H   0  0  0  0  0  0  0  0  0  0  0  0
    3.8131    4.1535   -5.7984 H   0  0  0  0  0  0  0  0  0  0  0  0
    3.0291    3.3002   -4.4882 H   0  0  0  0  0  0  0  0  0  0  0  0
    5.6736    3.2368   -4.8407 H   0  0  0  0  0  0  0  0  0  0  0  0
    6.7202    4.8680   -3.3211 H   0  0  0  0  0  0  0  0  0  0  0  0
    5.8788    5.6810   -4.6189 H   0  0  0  0  0  0  0  0  0  0  0  0
    5.1578    5.5940   -3.0296 H   0  0  0  0  0  0  0  0  0  0  0  0
    5.8931    2.7412   -2.4403 H   0  0  0  0  0  0  0  0  0  0  0  0
    4.8924    1.0900   -3.9721 H   0  0  0  0  0  0  0  0  0  0  0  0
    4.1690    0.9808   -2.3853 H   0  0  0  0  0  0  0  0  0  0  0  0
    3.3146    1.7823   -3.6817 H   0  0  0  0  0  0  0  0  0  0  0  0
    4.3564    3.3381   -0.8547 H   0  0  0  0  0  0  0  0  0  0  0  0
    4.1211    4.6707   -1.9614 H   0  0  0  0  0  0  0  0  0  0  0  0
  1  2  1  0  0  0  0
  1 30  1  0  0  0  0
  1 31  1  0  0  0  0
  1 32  1  0  0  0  0
  2  3  1  0  0  0  0
  3  4  1  0  0  0  0
  3 10  2  0  0  0  0
  4  5  2  0  0  0  0
  4 33  1  0  0  0  0
  5  6  1  0  0  0  0
  5 29  1  0  0  0  0
  6  7  2  0  0  0  0
  6 13  1  0  0  0  0
  7  8  1  0  0  0  0
  7 10  1  0  0  0  0
  8  9  1  0  0  0  0
  9 34  1  0  0  0  0
  9 35  1  0  0  0  0
  9 36  1  0  0  0  0
 10 11  1  0  0  0  0
 11 12  1  0  0  0  0
 12 37  1  0  0  0  0
 12 38  1  0  0  0  0
 12 39  1  0  0  0  0
 13 14  1  0  0  0  0
 13 18  2  0  0  0  0
 14 15  2  0  0  0  0
 14 24  1  0  0  0  0
 15 16  1  0  0  0  0
 15 40  1  0  0  0  0
 16 17  2  0  0  0  0
 16 23  1  0  0  0  0
 17 18  1  0  0  0  0
 17 21  1  0  0  0  0
 18 19  1  0  0  0  0
 19 20  1  0  0  0  0
 20 41  1  0  0  0  0
 20 42  1  0  0  0  0
 20 43  1  0  0  0  0
 21 22  1  0  0  0  0
 22 23  1  0  0  0  0
 22 44  1  0  0  0  0
 22 45  1  0  0  0  0
 24 25  1  0  0  0  0
 24 46  1  0  0  0  0
 24 47  1  0  0  0  0
 25 26  1  0  0  0  0
 25 27  1  0  0  0  0
 25 48  1  0  0  0  0
 26 49  1  0  0  0  0
 26 50  1  0  0  0  0
 26 51  1  0  0  0  0
 27 28  1  0  0  0  0
 27 29  1  0  0  0  0
 27 52  1  0  0  0  0
 28 53  1  0  0  0  0
 28 54  1  0  0  0  0
 28 55  1  0  0  0  0
 29 56  1  0  0  0  0
 29 57  1  0  0  0  0
M  END
